lig_CHEMBL1084677
                    3D
 Schrodinger Suite 2022-3.
 62 65  0  0  1  0            999 V2000
   34.2542    7.0437   16.2339 H   0  0  0  0  0  0
   33.2715    7.3883   15.9458 C   0  0  0  0  0  0
   32.1380    6.9883   16.6772 C   0  0  0  0  0  0
   32.2499    6.3285   17.5256 H   0  0  0  0  0  0
   30.8557    7.4292   16.2989 C   0  0  0  0  0  0
   29.9912    7.1088   16.8615 H   0  0  0  0  0  0
   30.7062    8.2894   15.1925 C   0  0  0  0  0  0
   29.3313    8.7880   14.7833 C   0  0  2  0  0  0
   28.6004    8.3418   15.4588 H   0  0  0  0  0  0
   29.0044    8.3026   13.4488 N   0  0  0  0  0  0
   29.1849    7.3206   13.2786 H   0  0  0  0  0  0
   27.9860    8.9333   12.7222 C   0  0  0  0  0  0
   27.5855    8.3637   11.4988 C   0  0  0  0  0  0
   28.0386    7.4499   11.1440 H   0  0  0  0  0  0
   26.5960    8.9881   10.7181 C   0  0  0  0  0  0
   26.3100    8.5553    9.7715 H   0  0  0  0  0  0
   25.9966   10.1902   11.1482 C   0  0  0  0  0  0
   24.9967   10.9078   10.2617 C   0  0  0  0  0  0
   24.3239   10.0297    9.5193 F   0  0  0  0  0  0
   24.1307   11.6216   10.9820 F   0  0  0  0  0  0
   25.6561   11.7367    9.4531 F   0  0  0  0  0  0
   26.3831   10.7503   12.3807 C   0  0  0  0  0  0
   25.9427   11.6792   12.7138 H   0  0  0  0  0  0
   27.3766   10.1330   13.1649 C   0  0  0  0  0  0
   27.7988   10.7860   14.4654 C   0  0  1  0  0  0
   27.8007   11.8677   14.3097 H   0  0  0  0  0  0
   26.8580   10.4746   15.4889 O   0  0  0  0  0  0
   27.0928   11.1374   16.7245 C   0  0  1  0  0  0
   27.1324   12.2104   16.5278 H   0  0  0  0  0  0
   25.8590   10.8714   17.6225 C   0  0  0  0  0  0
   25.4112   11.8150   17.9353 H   0  0  0  0  0  0
   25.0855   10.3441   17.0626 H   0  0  0  0  0  0
   26.1853   10.1005   18.8244 N   0  0  2  0  0  0
   27.0764    9.6113   18.7919 H   0  0  0  0  0  0
   24.9719    9.2915   19.7374 S   0  0  0  0  0  0
   25.5924    8.9242   21.0181 O   0  0  0  0  0  0
   23.7609   10.1244   19.7158 O   0  0  0  0  0  0
   24.6388    7.7414   18.7894 C   0  0  0  0  0  0
   23.9878    7.9819   17.9480 H   0  0  0  0  0  0
   25.5857    7.3890   18.3782 H   0  0  0  0  0  0
   24.0180    6.6801   19.7211 C   0  0  0  0  0  0
   24.6238    6.5917   20.6237 H   0  0  0  0  0  0
   23.0282    6.9919   20.0587 H   0  0  0  0  0  0
   23.9849    5.3305   19.1168 N   0  3  0  0  0  0
   24.6079    5.2929   18.3232 H   0  0  0  0  0  0
   22.6414    4.8701   18.7249 C   0  0  0  0  0  0
   22.6853    3.8588   18.3177 H   0  0  0  0  0  0
   22.2023    5.5270   17.9747 H   0  0  0  0  0  0
   21.9849    4.8552   19.5947 H   0  0  0  0  0  0
   28.4632   10.6801   17.2790 C   0  0  0  0  0  0
   28.6908   11.2040   18.2079 H   0  0  0  0  0  0
   28.4445    9.6151   17.5109 H   0  0  0  0  0  0
   29.5727   10.9364   16.2549 C   0  0  0  0  0  0
   29.7064   12.0140   16.1439 H   0  0  0  0  0  0
   30.5223   10.5541   16.6259 H   0  0  0  0  0  0
   29.2119   10.3320   14.8821 C   0  0  1  0  0  0
   29.9134   10.7527   14.1598 H   0  0  0  0  0  0
   31.8434    8.6760   14.4516 C   0  0  0  0  0  0
   31.7359    9.3184   13.5900 H   0  0  0  0  0  0
   33.1218    8.2241   14.8254 C   0  0  0  0  0  0
   33.9850    8.5255   14.2529 H   0  0  0  0  0  0
   24.3474    4.6960   19.8319 H   0  0  0  0  0  0
  1  2  1  0  0  0
  2 60  1  0  0  0
  2  3  2  0  0  0
  3  4  1  0  0  0
  3  5  1  0  0  0
  5  6  1  0  0  0
  5  7  2  0  0  0
  7  8  1  0  0  0
  7 58  1  0  0  0
  8 56  1  0  0  0
  8  9  1  0  0  0
  8 10  1  0  0  0
 10 11  1  0  0  0
 10 12  1  0  0  0
 12 24  1  0  0  0
 12 13  2  0  0  0
 13 14  1  0  0  0
 13 15  1  0  0  0
 15 16  1  0  0  0
 15 17  2  0  0  0
 17 18  1  0  0  0
 17 22  1  0  0  0
 18 19  1  0  0  0
 18 20  1  0  0  0
 18 21  1  0  0  0
 22 23  1  0  0  0
 22 24  2  0  0  0
 24 25  1  0  0  0
 25 56  1  0  0  0
 25 26  1  0  0  0
 25 27  1  0  0  0
 27 28  1  0  0  0
 28 29  1  0  0  0
 28 30  1  0  0  0
 28 50  1  0  0  0
 30 31  1  0  0  0
 30 32  1  0  0  0
 30 33  1  0  0  0
 33 34  1  0  0  0
 33 35  1  0  0  0
 35 36  2  0  0  0
 35 37  2  0  0  0
 35 38  1  0  0  0
 38 39  1  0  0  0
 38 40  1  0  0  0
 38 41  1  0  0  0
 41 42  1  0  0  0
 41 43  1  0  0  0
 41 44  1  0  0  0
 44 45  1  0  0  0
 44 46  1  0  0  0
 44 62  1  0  0  0
 46 47  1  0  0  0
 46 48  1  0  0  0
 46 49  1  0  0  0
 50 51  1  0  0  0
 50 52  1  0  0  0
 50 53  1  0  0  0
 53 54  1  0  0  0
 53 55  1  0  0  0
 53 56  1  0  0  0
 56 57  1  0  0  0
 58 59  1  0  0  0
 58 60  2  0  0  0
 60 61  1  0  0  0
M  CHG  1  44   1
M  END
> <s_m_source_file>
ligprep_eg5.smi

> <i_m_source_file_index>
14

> <i_lp_mmshare_version>
53161

> <i_f3d_flags>
0

> <s_epik_input>
W2NIXTFbY0hdW2NIXVtjSF1bY0hdYzFbQ0BIXShbTkhdMilbQ0BASF0oW0NASF0zYyhjMjQpW2NIXWMoQyhGKShGKUYpW2NIXVtjSF00KVtDSDJdW0NIMl1bQ0BASF0oTzMpW0NIMl1bTkhdUyg9TykoPU8pW0NIMl1bQ0gyXVtOSF1bQ0gzXQ==

> <s_epik_cmdline>
J2VwaWtfcHl0aG9uJywgJy1waHQnLCAnMC4wJywgJy1waCcsICc3LjQnLCAnLXRuJywgJzgnLCAnLW1hJywgJzUwMCcsICctaW1hZScsICc8aW5maWxlLm1hZT4nLCAnLW9tYWUnLCAnPG91dGZpbGUubWFlPic=

> <r_lp_tautomer_probability>
1

> <r_epik_Ionization_Penalty>
  0.0112

> <r_epik_Ionization_Penalty_Charging>
  0.0108

> <r_epik_Ionization_Penalty_Neutral>
  0.0003

> <r_epik_State_Penalty>
 -0.0000

> <r_epik_Charging_Adjusted_Penalty>
0.0108481

> <i_epik_Tot_Q>
1

> <i_epik_Tot_abs_Q>
1

> <s_lp_Force_Field>
S-OPLS

> <r_lp_Energy>
31.394

> <b_lp_Chiralities_Consistent>
1

> <s_lp_Variant>
lig_CHEMBL1084677-1

> <s_i_glide_gridfile>
glide-grid_EG5-3L9H

> <i_i_glide_lignum>
14

> <i_i_glide_rotatable_bonds>
8

> <r_i_docking_score>
-9.52685998914813

> <r_i_glide_ligand_efficiency>
-0.288692726943883

> <r_i_glide_ligand_efficiency_sa>
-0.925991831413369

> <r_i_glide_ligand_efficiency_ln>
-2.11872433414547

> <r_i_glide_gscore>
-9.52685998914813

> <r_i_glide_lipo>
-4.55621898545261

> <r_i_glide_hbond>
-0.332915304848589

> <r_i_glide_metal>
-0

> <r_i_glide_rewards>
-1.18169917993037

> <r_i_glide_evdw>
-51.0294227600098

> <r_i_glide_ecoul>
-10.0400190353394

> <r_i_glide_erotb>
0.605472246693747

> <r_i_glide_esite>
-0.00402477230891625

> <r_i_glide_emodel>
-102.064413920816

> <r_i_glide_energy>
-61.0694417953491

> <r_i_glide_einternal>
6.86161708831787

> <i_i_glide_confnum>
32

> <i_i_glide_posenum>
272

> <r_i_glide_eff_state_penalty>
-0

> <r_i_glide_rmsd>
0.0708102401621492

> <s_glide_core_constrain_type>
snapped_core_restrain

$$$$
lig_CHEMBL1083517
                    3D
 Schrodinger Suite 2022-3.
 52 55  0  0  1  0            999 V2000
   35.2150    7.0627   16.1224 H   0  0  0  0  0  0
   34.3851    7.0863   16.6133 O   0  0  0  0  0  0
   33.2187    7.3991   15.9900 C   0  0  0  0  0  0
   32.0532    6.9700   16.6427 C   0  0  0  0  0  0
   32.1269    6.3432   17.5198 H   0  0  0  0  0  0
   30.7902    7.3882   16.2019 C   0  0  0  0  0  0
   29.9035    7.0674   16.7268 H   0  0  0  0  0  0
   30.6956    8.2539   15.1011 C   0  0  0  0  0  0
   29.3360    8.7758   14.6921 C   0  0  2  0  0  0
   28.5956    8.3334   15.3606 H   0  0  0  0  0  0
   29.0087    8.3044   13.3589 N   0  0  0  0  0  0
   29.1850    7.3248   13.1712 H   0  0  0  0  0  0
   27.9670    8.9305   12.6690 C   0  0  0  0  0  0
   27.5512    8.3641   11.4514 C   0  0  0  0  0  0
   28.0014    7.4495   11.0971 H   0  0  0  0  0  0
   26.5551    8.9915   10.6838 C   0  0  0  0  0  0
   26.2576    8.5653    9.7373 H   0  0  0  0  0  0
   25.9698   10.1944   11.1294 C   0  0  0  0  0  0
   24.9691   10.9274   10.2592 C   0  0  0  0  0  0
   24.2743   10.0646    9.5189 F   0  0  0  0  0  0
   24.1286   11.6470   11.0028 F   0  0  0  0  0  0
   25.6292   11.7532    9.4489 F   0  0  0  0  0  0
   26.3599   10.7421   12.3670 C   0  0  0  0  0  0
   25.9220   11.6682   12.7092 H   0  0  0  0  0  0
   27.3562   10.1191   13.1405 C   0  0  0  0  0  0
   27.8061   10.7739   14.4356 C   0  0  1  0  0  0
   27.8143   11.8524   14.2661 H   0  0  0  0  0  0
   26.8951   10.4887   15.5032 O   0  0  0  0  0  0
   27.1855   11.1940   16.7075 C   0  0  1  0  0  0
   27.2620   12.2523   16.4497 H   0  0  0  0  0  0
   25.9840   11.0721   17.6855 C   0  0  0  0  0  0
   25.7994   12.0375   18.1592 H   0  0  0  0  0  0
   25.0809   10.8564   17.1119 H   0  0  0  0  0  0
   26.1267   10.0401   18.7390 N   0  3  0  0  0  0
   25.2144    9.6269   18.8832 H   0  0  0  0  0  0
   26.5903   10.5324   20.0533 C   0  0  0  0  0  0
   26.6588    9.7015   20.7563 H   0  0  0  0  0  0
   25.8875   11.2595   20.4616 H   0  0  0  0  0  0
   27.5710   11.0015   19.9899 H   0  0  0  0  0  0
   28.5544   10.7150   17.2353 C   0  0  0  0  0  0
   28.8333   11.2672   18.1319 H   0  0  0  0  0  0
   28.5125    9.6597   17.5055 H   0  0  0  0  0  0
   29.6411   10.9156   16.1734 C   0  0  0  0  0  0
   29.8138   11.9852   16.0476 H   0  0  0  0  0  0
   30.5861   10.5046   16.5250 H   0  0  0  0  0  0
   29.2294   10.3181   14.8100 C   0  0  1  0  0  0
   29.9142   10.7354   14.0691 H   0  0  0  0  0  0
   31.8630    8.6324   14.3985 C   0  0  0  0  0  0
   31.7885    9.2808   13.5377 H   0  0  0  0  0  0
   33.1307    8.2013   14.8381 C   0  0  0  0  0  0
   34.0146    8.5386   14.3232 H   0  0  0  0  0  0
   26.7380    9.3111   18.3991 H   0  0  0  0  0  0
  1  2  1  0  0  0
  2  3  1  0  0  0
  3 50  1  0  0  0
  3  4  2  0  0  0
  4  5  1  0  0  0
  4  6  1  0  0  0
  6  7  1  0  0  0
  6  8  2  0  0  0
  8  9  1  0  0  0
  8 48  1  0  0  0
  9 46  1  0  0  0
  9 10  1  0  0  0
  9 11  1  0  0  0
 11 12  1  0  0  0
 11 13  1  0  0  0
 13 25  1  0  0  0
 13 14  2  0  0  0
 14 15  1  0  0  0
 14 16  1  0  0  0
 16 17  1  0  0  0
 16 18  2  0  0  0
 18 19  1  0  0  0
 18 23  1  0  0  0
 19 20  1  0  0  0
 19 21  1  0  0  0
 19 22  1  0  0  0
 23 24  1  0  0  0
 23 25  2  0  0  0
 25 26  1  0  0  0
 26 46  1  0  0  0
 26 27  1  0  0  0
 26 28  1  0  0  0
 28 29  1  0  0  0
 29 30  1  0  0  0
 29 31  1  0  0  0
 29 40  1  0  0  0
 31 32  1  0  0  0
 31 33  1  0  0  0
 31 34  1  0  0  0
 34 35  1  0  0  0
 34 36  1  0  0  0
 34 52  1  0  0  0
 36 37  1  0  0  0
 36 38  1  0  0  0
 36 39  1  0  0  0
 40 41  1  0  0  0
 40 42  1  0  0  0
 40 43  1  0  0  0
 43 44  1  0  0  0
 43 45  1  0  0  0
 43 46  1  0  0  0
 46 47  1  0  0  0
 48 49  1  0  0  0
 48 50  2  0  0  0
 50 51  1  0  0  0
M  CHG  1  34   1
M  END
> <s_m_source_file>
ligprep_eg5.smi

> <i_m_source_file_index>
8

> <i_lp_mmshare_version>
53161

> <i_f3d_flags>
0

> <s_epik_input>
W09IXWMxW2NIXVtjSF1jKFtjSF1bY0hdMSlbQ0BIXShbTkhdMilbQ0BASF0oW0NASF0zYyhjMjQpW2NIXWMoQyhGKShGKUYpW2NIXVtjSF00KVtDSDJdW0NIMl1bQ0BASF0oTzMpW0NIMl1bTkhdW0NIM10=

> <s_epik_cmdline>
J2VwaWtfcHl0aG9uJywgJy1waHQnLCAnMC4wJywgJy1waCcsICc3LjQnLCAnLXRuJywgJzgnLCAnLW1hJywgJzUwMCcsICctaW1hZScsICc8aW5maWxlLm1hZT4nLCAnLW9tYWUnLCAnPG91dGZpbGUubWFlPic=

> <r_lp_tautomer_probability>
1

> <r_epik_Ionization_Penalty>
  0.0030

> <r_epik_Ionization_Penalty_Charging>
  0.0023

> <r_epik_Ionization_Penalty_Neutral>
  0.0006

> <r_epik_State_Penalty>
 -0.0000

> <r_epik_Charging_Adjusted_Penalty>
0.00234401

> <i_epik_Tot_Q>
1

> <i_epik_Tot_abs_Q>
1

> <s_lp_Force_Field>
S-OPLS

> <r_lp_Energy>
37.6632

> <b_lp_Chiralities_Consistent>
1

> <s_lp_Variant>
lig_CHEMBL1083517-1

> <s_i_glide_gridfile>
glide-grid_EG5-3L9H

> <i_i_glide_lignum>
8

> <i_i_glide_rotatable_bonds>
5

> <r_i_docking_score>
-9.27353612538142

> <r_i_glide_ligand_efficiency>
-0.331197718763622

> <r_i_glide_ligand_efficiency_sa>
-1.00571133919091

> <r_i_glide_ligand_efficiency_ln>
-2.1406044205901

> <r_i_glide_gscore>
-9.27353612538142

> <r_i_glide_lipo>
-4.56840923087722

> <r_i_glide_hbond>
-0.348796882604425

> <r_i_glide_metal>
-0

> <r_i_glide_rewards>
-1.78888792667203

> <r_i_glide_evdw>
-37.3650360107422

> <r_i_glide_ecoul>
-8.86820888519287

> <r_i_glide_erotb>
0.631041048088293

> <r_i_glide_esite>
0

> <r_i_glide_emodel>
-49.8936169088365

> <r_i_glide_energy>
-46.2332448959351

> <r_i_glide_einternal>
0.289697885513306

> <i_i_glide_confnum>
2

> <i_i_glide_posenum>
1

> <r_i_glide_eff_state_penalty>
-0

> <r_i_glide_rmsd>
0.0821186776411881

> <s_glide_core_constrain_type>
snapped_core_restrain

$$$$
lig_CHEMBL1084143
                    3D
 Schrodinger Suite 2022-3.
 74 77  0  0  1  0            999 V2000
   34.2890    7.0549   16.2089 H   0  0  0  0  0  0
   33.2984    7.3883   15.9243 C   0  0  0  0  0  0
   32.1748    6.9864   16.6702 C   0  0  0  0  0  0
   32.3011    6.3366   17.5241 H   0  0  0  0  0  0
   30.8852    7.4111   16.2998 C   0  0  0  0  0  0
   30.0283    7.0927   16.8776 H   0  0  0  0  0  0
   30.7181    8.2597   15.1890 C   0  0  0  0  0  0
   29.3371    8.7553   14.7970 C   0  0  2  0  0  0
   28.6147    8.3142   15.4846 H   0  0  0  0  0  0
   28.9954    8.2646   13.4668 N   0  0  0  0  0  0
   29.1817    7.2859   13.2856 H   0  0  0  0  0  0
   27.9850    8.9027   12.7335 C   0  0  0  0  0  0
   27.5838    8.3471   11.5048 C   0  0  0  0  0  0
   28.0245    7.4273   11.1494 H   0  0  0  0  0  0
   26.6054    8.9883   10.7188 C   0  0  0  0  0  0
   26.3155    8.5593    9.7706 H   0  0  0  0  0  0
   26.0246   10.2002   11.1471 C   0  0  0  0  0  0
   25.0447   10.9358   10.2428 C   0  0  0  0  0  0
   24.5209   10.1894    9.6425 H   0  0  0  0  0  0
   25.8202   11.8722    9.3174 C   0  0  0  0  0  0
   26.5217   11.3047    8.7190 H   0  0  0  0  0  0
   26.3842   12.5889    9.9073 H   0  0  0  0  0  0
   25.1858   12.4509    8.6482 H   0  0  0  0  0  0
   23.9982   11.7308   11.0279 C   0  0  0  0  0  0
   23.5851   11.1146   11.8148 H   0  0  0  0  0  0
   23.1856   12.0850   10.3954 H   0  0  0  0  0  0
   24.4472   12.5883   11.5172 H   0  0  0  0  0  0
   26.4188   10.7448   12.3854 C   0  0  0  0  0  0
   26.0129   11.6846   12.7263 H   0  0  0  0  0  0
   27.3915   10.1074   13.1771 C   0  0  0  0  0  0
   27.8193   10.7625   14.4739 C   0  0  1  0  0  0
   27.8404   11.8400   14.3009 H   0  0  0  0  0  0
   26.8751   10.4887   15.5085 O   0  0  0  0  0  0
   27.1349   11.2013   16.7104 C   0  0  1  0  0  0
   27.2230   12.2583   16.4512 H   0  0  0  0  0  0
   25.9065   11.0792   17.6423 C   0  0  0  0  0  0
   25.6969   12.0572   18.0783 H   0  0  0  0  0  0
   25.0158   10.7989   17.0789 H   0  0  0  0  0  0
   26.1209   10.1352   18.7397 N   0  0  2  0  0  0
   26.5354    9.2575   18.4329 H   0  0  0  0  0  0
   24.8976    9.9019   19.9272 S   0  0  0  0  0  0
   25.5502    9.2695   21.0852 O   0  0  0  0  0  0
   24.1680   11.1677   20.0755 O   0  0  0  0  0  0
   23.7931    8.6664   19.1292 C   0  0  0  0  0  0
   22.8511    8.6615   19.6775 H   0  0  0  0  0  0
   23.5836    8.9936   18.1103 H   0  0  0  0  0  0
   24.4548    7.2835   19.1769 C   0  0  0  0  0  0
   25.4377    7.3882   18.7187 H   0  0  0  0  0  0
   24.6483    7.0012   20.2152 H   0  0  0  0  0  0
   23.7014    6.1590   18.4469 C   0  0  0  0  0  0
   22.8764    6.5536   17.8506 H   0  0  0  0  0  0
   24.3926    5.7064   17.7347 H   0  0  0  0  0  0
   23.2128    5.1113   19.3791 N   0  3  0  0  0  0
   21.9566    5.5037   20.0506 C   0  0  0  0  0  0
   21.1631    5.6873   19.3242 H   0  0  0  0  0  0
   22.0949    6.4065   20.6434 H   0  0  0  0  0  0
   21.6157    4.7174   20.7189 H   0  0  0  0  0  0
   23.1062    3.7878   18.7314 C   0  0  0  0  0  0
   22.3851    3.7976   17.9183 H   0  0  0  0  0  0
   22.7907    3.0286   19.4476 H   0  0  0  0  0  0
   24.0648    3.4746   18.3206 H   0  0  0  0  0  0
   28.4845   10.7217   17.2882 C   0  0  0  0  0  0
   28.7225   11.2681   18.2016 H   0  0  0  0  0  0
   28.4314    9.6659   17.5566 H   0  0  0  0  0  0
   29.6040   10.9126   16.2590 C   0  0  0  0  0  0
   29.7788   11.9821   16.1283 H   0  0  0  0  0  0
   30.5385   10.5037   16.6411 H   0  0  0  0  0  0
   29.2265   10.2992   14.8915 C   0  0  1  0  0  0
   29.9262   10.7113   14.1625 H   0  0  0  0  0  0
   31.8450    8.6445   14.4306 C   0  0  0  0  0  0
   31.7244    9.2812   13.5660 H   0  0  0  0  0  0
   33.1304    8.2083   14.7950 C   0  0  0  0  0  0
   33.9836    8.5120   14.2094 H   0  0  0  0  0  0
   23.9189    4.9883   20.1044 H   0  0  0  0  0  0
  1  2  1  0  0  0
  2 72  1  0  0  0
  2  3  2  0  0  0
  3  4  1  0  0  0
  3  5  1  0  0  0
  5  6  1  0  0  0
  5  7  2  0  0  0
  7  8  1  0  0  0
  7 70  1  0  0  0
  8 68  1  0  0  0
  8  9  1  0  0  0
  8 10  1  0  0  0
 10 11  1  0  0  0
 10 12  1  0  0  0
 12 30  1  0  0  0
 12 13  2  0  0  0
 13 14  1  0  0  0
 13 15  1  0  0  0
 15 16  1  0  0  0
 15 17  2  0  0  0
 17 18  1  0  0  0
 17 28  1  0  0  0
 18 19  1  0  0  0
 18 20  1  0  0  0
 18 24  1  0  0  0
 20 21  1  0  0  0
 20 22  1  0  0  0
 20 23  1  0  0  0
 24 25  1  0  0  0
 24 26  1  0  0  0
 24 27  1  0  0  0
 28 29  1  0  0  0
 28 30  2  0  0  0
 30 31  1  0  0  0
 31 68  1  0  0  0
 31 32  1  0  0  0
 31 33  1  0  0  0
 33 34  1  0  0  0
 34 35  1  0  0  0
 34 36  1  0  0  0
 34 62  1  0  0  0
 36 37  1  0  0  0
 36 38  1  0  0  0
 36 39  1  0  0  0
 39 40  1  0  0  0
 39 41  1  0  0  0
 41 42  2  0  0  0
 41 43  2  0  0  0
 41 44  1  0  0  0
 44 45  1  0  0  0
 44 46  1  0  0  0
 44 47  1  0  0  0
 47 48  1  0  0  0
 47 49  1  0  0  0
 47 50  1  0  0  0
 50 51  1  0  0  0
 50 52  1  0  0  0
 50 53  1  0  0  0
 53 54  1  0  0  0
 53 58  1  0  0  0
 53 74  1  0  0  0
 54 55  1  0  0  0
 54 56  1  0  0  0
 54 57  1  0  0  0
 58 59  1  0  0  0
 58 60  1  0  0  0
 58 61  1  0  0  0
 62 63  1  0  0  0
 62 64  1  0  0  0
 62 65  1  0  0  0
 65 66  1  0  0  0
 65 67  1  0  0  0
 65 68  1  0  0  0
 68 69  1  0  0  0
 70 71  1  0  0  0
 70 72  2  0  0  0
 72 73  1  0  0  0
M  CHG  1  53   1
M  END
> <s_m_source_file>
ligprep_eg5.smi

> <i_m_source_file_index>
11

> <i_lp_mmshare_version>
53161

> <i_f3d_flags>
0

> <s_epik_input>
W2NIXTFbY0hdW2NIXVtjSF1bY0hdYzFbQ0BIXShbTkhdMilbQ0BASF0oW0NASF0zYyhjMjQpW2NIXWMoW2NIXVtjSF00KVtDSF0oW0NIM10pW0NIM10pW0NIMl1bQ0gyXVtDQEBIXShPMylbQ0gyXVtOSF1TKD1PKSg9TylbQ0gyXVtDSDJdW0NIMl1OKFtDSDNdKVtDSDNd

> <s_epik_cmdline>
J2VwaWtfcHl0aG9uJywgJy1waHQnLCAnMC4wJywgJy1waCcsICc3LjQnLCAnLXRuJywgJzgnLCAnLW1hJywgJzUwMCcsICctaW1hZScsICc8aW5maWxlLm1hZT4nLCAnLW9tYWUnLCAnPG91dGZpbGUubWFlPic=

> <r_lp_tautomer_probability>
1

> <r_epik_Ionization_Penalty>
  0.0133

> <r_epik_Ionization_Penalty_Charging>
  0.0127

> <r_epik_Ionization_Penalty_Neutral>
  0.0006

> <r_epik_State_Penalty>
 -0.0000

> <r_epik_Charging_Adjusted_Penalty>
0.0127395

> <i_epik_Tot_Q>
1

> <i_epik_Tot_abs_Q>
1

> <s_lp_Force_Field>
S-OPLS

> <r_lp_Energy>
44.0586

> <b_lp_Chiralities_Consistent>
1

> <s_lp_Variant>
lig_CHEMBL1084143-1

> <s_i_glide_gridfile>
glide-grid_EG5-3L9H

> <i_i_glide_lignum>
11

> <i_i_glide_rotatable_bonds>
9

> <r_i_docking_score>
-9.17707146718083

> <r_i_glide_ligand_efficiency>
-0.269913866681789

> <r_i_glide_ligand_efficiency_sa>
-0.874416146802926

> <r_i_glide_ligand_efficiency_ln>
-2.02747249523591

> <r_i_glide_gscore>
-9.17707146718083

> <r_i_glide_lipo>
-5.19710641060366

> <r_i_glide_hbond>
-0.35763212329897

> <r_i_glide_metal>
-0

> <r_i_glide_rewards>
-0.276346688977199

> <r_i_glide_evdw>
-52.4617805480957

> <r_i_glide_ecoul>
-9.07236576080322

> <r_i_glide_erotb>
0.686425891697789

> <r_i_glide_esite>
-0.0484682444735191

> <r_i_glide_emodel>
-86.3049340602711

> <r_i_glide_energy>
-61.5341463088989

> <r_i_glide_einternal>
10.7834968566895

> <i_i_glide_confnum>
289

> <i_i_glide_posenum>
91

> <r_i_glide_eff_state_penalty>
-0

> <r_i_glide_rmsd>
0.0671303869202424

> <s_glide_core_constrain_type>
snapped_core_restrain

$$$$
lig_CHEMBL1084678
                    3D
 Schrodinger Suite 2022-3.
 65 68  0  0  1  0            999 V2000
   34.2901    7.0565   16.2136 H   0  0  0  0  0  0
   33.2995    7.3873   15.9295 C   0  0  0  0  0  0
   32.1778    6.9787   16.6753 C   0  0  0  0  0  0
   32.3050    6.3301   17.5322 H   0  0  0  0  0  0
   30.8866    7.4067   16.3086 C   0  0  0  0  0  0
   30.0301    7.0823   16.8801 H   0  0  0  0  0  0
   30.7145    8.2568   15.1962 C   0  0  0  0  0  0
   29.3293    8.7443   14.8041 C   0  0  2  0  0  0
   28.6081    8.2941   15.4920 H   0  0  0  0  0  0
   28.9931    8.2645   13.4713 N   0  0  0  0  0  0
   29.1869    7.2880   13.2845 H   0  0  0  0  0  0
   27.9692    8.8970   12.7508 C   0  0  0  0  0  0
   27.5882    8.3519   11.5097 C   0  0  0  0  0  0
   28.0549    7.4502   11.1422 H   0  0  0  0  0  0
   26.6126    8.9887   10.7240 C   0  0  0  0  0  0
   26.3484    8.5772    9.7601 H   0  0  0  0  0  0
   25.9978   10.1764   11.1739 C   0  0  0  0  0  0
   25.0086   10.9022   10.2778 C   0  0  0  0  0  0
   24.3521   10.0288    9.5189 F   0  0  0  0  0  0
   24.1311   11.6175   10.9771 F   0  0  0  0  0  0
   25.6753   11.7419    9.4872 F   0  0  0  0  0  0
   26.3591   10.7125   12.4272 C   0  0  0  0  0  0
   25.9084   11.6313   12.7667 H   0  0  0  0  0  0
   27.3466   10.0831   13.2149 C   0  0  0  0  0  0
   27.7805   10.7322   14.5166 C   0  0  1  0  0  0
   27.7884   11.8109   14.3449 H   0  0  0  0  0  0
   26.8584   10.4471   15.5733 O   0  0  0  0  0  0
   27.1415   11.1474   16.7856 C   0  0  1  0  0  0
   27.2231   12.2033   16.5214 H   0  0  0  0  0  0
   25.9199   11.0574   17.7473 C   0  0  0  0  0  0
   25.7172   12.0397   18.1713 H   0  0  0  0  0  0
   25.0336   10.8167   17.1554 H   0  0  0  0  0  0
   26.0557   10.0953   18.8632 N   0  0  1  0  0  0
   26.6812   10.6336   20.0756 C   0  0  0  0  0  0
   27.4336   11.3930   19.8512 H   0  0  0  0  0  0
   27.1585    9.8367   20.6515 H   0  0  0  0  0  0
   25.9231   11.1026   20.7053 H   0  0  0  0  0  0
   24.7771    8.9769   19.1435 S   0  0  0  0  0  0
   24.9663    8.4020   20.4811 O   0  0  0  0  0  0
   23.4957    9.6156   18.7933 O   0  0  0  0  0  0
   25.1849    7.7114   17.9133 C   0  0  0  0  0  0
   25.2672    8.2114   16.9528 H   0  0  0  0  0  0
   26.1848    7.3883   18.1628 H   0  0  0  0  0  0
   24.1255    6.5997   17.8066 C   0  0  0  0  0  0
   23.1743    7.0772   17.5655 H   0  0  0  0  0  0
   24.3850    5.9897   16.9491 H   0  0  0  0  0  0
   23.9442    5.6681   19.0135 C   0  0  0  0  0  0
   24.7849    4.9897   19.1183 H   0  0  0  0  0  0
   23.8338    6.2194   19.9454 H   0  0  0  0  0  0
   22.7559    4.8180   18.8438 N   0  3  0  0  0  0
   22.6304    4.2164   19.6444 H   0  0  0  0  0  0
   22.8369    4.2362   18.0220 H   0  0  0  0  0  0
   28.5122   10.6850   17.3186 C   0  0  0  0  0  0
   28.7961   11.2429   18.2115 H   0  0  0  0  0  0
   28.4729    9.6284   17.5935 H   0  0  0  0  0  0
   29.6049   10.8986   16.2626 C   0  0  0  0  0  0
   29.7590   11.9716   16.1323 H   0  0  0  0  0  0
   30.5547   10.5046   16.6223 H   0  0  0  0  0  0
   29.2027   10.2853   14.9065 C   0  0  1  0  0  0
   29.8840   10.7043   14.1647 H   0  0  0  0  0  0
   31.8398    8.6541   14.4419 C   0  0  0  0  0  0
   31.7177    9.2919   13.5834 H   0  0  0  0  0  0
   33.1291    8.2148   14.8055 C   0  0  0  0  0  0
   33.9844    8.5276   14.2288 H   0  0  0  0  0  0
   21.9230    5.3877   18.7539 H   0  0  0  0  0  0
  1  2  1  0  0  0
  2 63  1  0  0  0
  2  3  2  0  0  0
  3  4  1  0  0  0
  3  5  1  0  0  0
  5  6  1  0  0  0
  5  7  2  0  0  0
  7  8  1  0  0  0
  7 61  1  0  0  0
  8 59  1  0  0  0
  8  9  1  0  0  0
  8 10  1  0  0  0
 10 11  1  0  0  0
 10 12  1  0  0  0
 12 24  1  0  0  0
 12 13  2  0  0  0
 13 14  1  0  0  0
 13 15  1  0  0  0
 15 16  1  0  0  0
 15 17  2  0  0  0
 17 18  1  0  0  0
 17 22  1  0  0  0
 18 19  1  0  0  0
 18 20  1  0  0  0
 18 21  1  0  0  0
 22 23  1  0  0  0
 22 24  2  0  0  0
 24 25  1  0  0  0
 25 59  1  0  0  0
 25 26  1  0  0  0
 25 27  1  0  0  0
 27 28  1  0  0  0
 28 29  1  0  0  0
 28 30  1  0  0  0
 28 53  1  0  0  0
 30 31  1  0  0  0
 30 32  1  0  0  0
 30 33  1  0  0  0
 33 34  1  0  0  0
 33 38  1  0  0  0
 34 35  1  0  0  0
 34 36  1  0  0  0
 34 37  1  0  0  0
 38 39  2  0  0  0
 38 40  2  0  0  0
 38 41  1  0  0  0
 41 42  1  0  0  0
 41 43  1  0  0  0
 41 44  1  0  0  0
 44 45  1  0  0  0
 44 46  1  0  0  0
 44 47  1  0  0  0
 47 48  1  0  0  0
 47 49  1  0  0  0
 47 50  1  0  0  0
 50 51  1  0  0  0
 50 52  1  0  0  0
 50 65  1  0  0  0
 53 54  1  0  0  0
 53 55  1  0  0  0
 53 56  1  0  0  0
 56 57  1  0  0  0
 56 58  1  0  0  0
 56 59  1  0  0  0
 59 60  1  0  0  0
 61 62  1  0  0  0
 61 63  2  0  0  0
 63 64  1  0  0  0
M  CHG  1  50   1
M  END
> <s_m_source_file>
ligprep_eg5.smi

> <i_m_source_file_index>
15

> <i_lp_mmshare_version>
53161

> <i_f3d_flags>
0

> <s_epik_input>
W2NIXTFbY0hdW2NIXVtjSF1bY0hdYzFbQ0BIXShbTkhdMilbQ0BASF0oW0NASF0zYyhjMjQpW2NIXWMoQyhGKShGKUYpW2NIXVtjSF00KVtDSDJdW0NIMl1bQ0BASF0oTzMpW0NIMl1OKFtDSDNdKVMoPU8pKD1PKVtDSDJdW0NIMl1bQ0gyXVtOSDJd

> <s_epik_cmdline>
J2VwaWtfcHl0aG9uJywgJy1waHQnLCAnMC4wJywgJy1waCcsICc3LjQnLCAnLXRuJywgJzgnLCAnLW1hJywgJzUwMCcsICctaW1hZScsICc8aW5maWxlLm1hZT4nLCAnLW9tYWUnLCAnPG91dGZpbGUubWFlPic=

> <r_lp_tautomer_probability>
1

> <r_epik_Ionization_Penalty>
  0.0036

> <r_epik_Ionization_Penalty_Charging>
  0.0036

> <r_epik_Ionization_Penalty_Neutral>
  0.0000

> <r_epik_State_Penalty>
 -0.0000

> <r_epik_Charging_Adjusted_Penalty>
0.00359995

> <i_epik_Tot_Q>
1

> <i_epik_Tot_abs_Q>
1

> <s_lp_Force_Field>
S-OPLS

> <r_lp_Energy>
43.8047

> <b_lp_Chiralities_Consistent>
1

> <s_lp_Variant>
lig_CHEMBL1084678-1

> <s_i_glide_gridfile>
glide-grid_EG5-3L9H

> <i_i_glide_lignum>
15

> <i_i_glide_rotatable_bonds>
8

> <r_i_docking_score>
-9.0727226745557

> <r_i_glide_ligand_efficiency>
-0.266844784545756

> <r_i_glide_ligand_efficiency_sa>
-0.86447351210763

> <r_i_glide_ligand_efficiency_ln>
-2.00441892006052

> <r_i_glide_gscore>
-9.0727226745557

> <r_i_glide_lipo>
-4.58223689535746

> <r_i_glide_hbond>
-0.153504303299394

> <r_i_glide_metal>
-0

> <r_i_glide_rewards>
-1.08986131754344

> <r_i_glide_evdw>
-50.2855339050293

> <r_i_glide_ecoul>
-8.04208660125732

> <r_i_glide_erotb>
0.574649666667813

> <r_i_glide_esite>
-0.101180139583156

> <r_i_glide_emodel>
-92.3566109530651

> <r_i_glide_energy>
-58.3276205062866

> <r_i_glide_einternal>
3.94855976104736

> <i_i_glide_confnum>
6

> <i_i_glide_posenum>
13

> <r_i_glide_eff_state_penalty>
-0

> <r_i_glide_rmsd>
0.0908595054518094

> <s_glide_core_constrain_type>
snapped_core_restrain

$$$$
lig_CHEMBL1085666
                    3D
 Schrodinger Suite 2022-3.
 48 51  0  0  1  0            999 V2000
   34.2668    7.0542   16.1930 H   0  0  0  0  0  0
   33.2803    7.3943   15.9136 C   0  0  0  0  0  0
   33.1227    8.2510   14.8101 C   0  0  0  0  0  0
   33.9835    8.5689   14.2395 H   0  0  0  0  0  0
   31.8418    8.7068   14.4520 C   0  0  0  0  0  0
   31.7239    9.3692   13.6070 H   0  0  0  0  0  0
   30.7089    8.2984   15.1899 C   0  0  0  0  0  0
   29.3316    8.7895   14.7866 C   0  0  2  0  0  0
   28.6107    8.3370   15.4686 H   0  0  0  0  0  0
   28.9952    8.2892   13.4601 N   0  0  0  0  0  0
   29.1849    7.3087   13.2851 H   0  0  0  0  0  0
   27.9776    8.9194   12.7341 C   0  0  0  0  0  0
   27.5881    8.3588   11.5021 C   0  0  0  0  0  0
   28.0448    7.4496   11.1421 H   0  0  0  0  0  0
   26.6022    8.9852   10.7185 C   0  0  0  0  0  0
   26.3134    8.5517    9.7724 H   0  0  0  0  0  0
   26.0011   10.1852   11.1526 C   0  0  0  0  0  0
   25.0064   10.9040   10.2610 C   0  0  0  0  0  0
   25.6737   11.7278    9.4519 F   0  0  0  0  0  0
   24.3315   10.0254    9.5219 F   0  0  0  0  0  0
   24.1376   11.6186   10.9777 F   0  0  0  0  0  0
   26.3847   10.7467   12.3852 C   0  0  0  0  0  0
   25.9653   11.6925   12.7029 H   0  0  0  0  0  0
   27.3617   10.1151   13.1803 C   0  0  0  0  0  0
   27.7884   10.7720   14.4791 C   0  0  1  0  0  0
   27.7679   11.8516   14.3205 H   0  0  0  0  0  0
   26.8849   10.4590   15.5356 O   0  0  0  0  0  0
   27.1479   11.1845   16.7292 C   0  0  1  0  0  0
   27.1974   12.2448   16.4716 H   0  0  0  0  0  0
   25.9352   11.0032   17.6677 C   0  0  0  0  0  0
   25.6632   11.9618   18.1106 H   0  0  0  0  0  0
   25.0659   10.6731   17.0969 H   0  0  0  0  0  0
   26.1737   10.0403   18.7580 N   0  3  0  0  0  0
   25.3407    9.9447   19.3225 H   0  0  0  0  0  0
   26.9299   10.3843   19.3336 H   0  0  0  0  0  0
   28.5159   10.7338   17.2874 C   0  0  0  0  0  0
   28.7617   11.2835   18.1970 H   0  0  0  0  0  0
   28.4962    9.6733   17.5432 H   0  0  0  0  0  0
   29.6009   10.9645   16.2332 C   0  0  0  0  0  0
   29.7356   12.0395   16.0968 H   0  0  0  0  0  0
   30.5580   10.5910   16.5922 H   0  0  0  0  0  0
   29.2081   10.3356   14.8760 C   0  0  1  0  0  0
   29.8874   10.7513   14.1325 H   0  0  0  0  0  0
   30.8666    7.4176   16.2768 C   0  0  0  0  0  0
   30.0054    7.0747   16.8306 H   0  0  0  0  0  0
   32.1535    6.9827   16.6498 C   0  0  0  0  0  0
   32.2740    6.3133   17.4887 H   0  0  0  0  0  0
   26.4146    9.1424   18.3603 H   0  0  0  0  0  0
  1  2  1  0  0  0
  2 46  1  0  0  0
  2  3  2  0  0  0
  3  4  1  0  0  0
  3  5  1  0  0  0
  5  6  1  0  0  0
  5  7  2  0  0  0
  7  8  1  0  0  0
  7 44  1  0  0  0
  8 42  1  0  0  0
  8  9  1  0  0  0
  8 10  1  0  0  0
 10 11  1  0  0  0
 10 12  1  0  0  0
 12 24  1  0  0  0
 12 13  2  0  0  0
 13 14  1  0  0  0
 13 15  1  0  0  0
 15 16  1  0  0  0
 15 17  2  0  0  0
 17 18  1  0  0  0
 17 22  1  0  0  0
 18 19  1  0  0  0
 18 20  1  0  0  0
 18 21  1  0  0  0
 22 23  1  0  0  0
 22 24  2  0  0  0
 24 25  1  0  0  0
 25 42  1  0  0  0
 25 26  1  0  0  0
 25 27  1  0  0  0
 27 28  1  0  0  0
 28 29  1  0  0  0
 28 30  1  0  0  0
 28 36  1  0  0  0
 30 31  1  0  0  0
 30 32  1  0  0  0
 30 33  1  0  0  0
 33 34  1  0  0  0
 33 35  1  0  0  0
 33 48  1  0  0  0
 36 37  1  0  0  0
 36 38  1  0  0  0
 36 39  1  0  0  0
 39 40  1  0  0  0
 39 41  1  0  0  0
 39 42  1  0  0  0
 42 43  1  0  0  0
 44 45  1  0  0  0
 44 46  2  0  0  0
 46 47  1  0  0  0
M  CHG  1  33   1
M  END
> <s_m_source_file>
ligprep_eg5.smi

> <i_m_source_file_index>
17

> <i_lp_mmshare_version>
53161

> <i_f3d_flags>
0

> <s_epik_input>
W2NIXTFbY0hdW2NIXVtjSF1bY0hdYzFbQ0BIXShbTkhdMilbQ0BIXShbQ0gyXVtDSDJdW0NAQEhdKE8zKVtDSDJdW05IMl0pW0NASF0zYyhjMjQpW2NIXWMoQyhGKShGKUYpW2NIXVtjSF00

> <s_epik_cmdline>
J2VwaWtfcHl0aG9uJywgJy1waHQnLCAnMC4wJywgJy1waCcsICc3LjQnLCAnLXRuJywgJzgnLCAnLW1hJywgJzUwMCcsICctaW1hZScsICc8aW5maWxlLm1hZT4nLCAnLW9tYWUnLCAnPG91dGZpbGUubWFlPic=

> <r_lp_tautomer_probability>
1

> <r_epik_Ionization_Penalty>
  0.0054

> <r_epik_Ionization_Penalty_Charging>
  0.0054

> <r_epik_Ionization_Penalty_Neutral>
  0.0000

> <r_epik_State_Penalty>
 -0.0000

> <r_epik_Charging_Adjusted_Penalty>
0.00538612

> <i_epik_Tot_Q>
1

> <i_epik_Tot_abs_Q>
1

> <s_lp_Force_Field>
S-OPLS

> <r_lp_Energy>
34.8838

> <b_lp_Chiralities_Consistent>
1

> <s_lp_Variant>
lig_CHEMBL1085666-1

> <s_i_glide_gridfile>
glide-grid_EG5-3L9H

> <i_i_glide_lignum>
18

> <i_i_glide_rotatable_bonds>
3

> <r_i_docking_score>
-8.9463535501123

> <r_i_glide_ligand_efficiency>
-0.344090521158165

> <r_i_glide_ligand_efficiency_sa>
-1.01936681500024

> <r_i_glide_ligand_efficiency_ln>
-2.10102177586354

> <r_i_glide_gscore>
-8.9463535501123

> <r_i_glide_lipo>
-4.56759202898606

> <r_i_glide_hbond>
-0.141725690997466

> <r_i_glide_metal>
-0

> <r_i_glide_rewards>
-2.00420097938027

> <r_i_glide_evdw>
-43.7035179138184

> <r_i_glide_ecoul>
-3.22751998901367

> <r_i_glide_erotb>
0.436469043294473

> <r_i_glide_esite>
0

> <r_i_glide_emodel>
-77.9548824440419

> <r_i_glide_energy>
-46.931037902832

> <r_i_glide_einternal>
1.46975395409754e-07

> <i_i_glide_confnum>
8

> <i_i_glide_posenum>
8

> <r_i_glide_eff_state_penalty>
-0

> <r_i_glide_rmsd>
0.0634782723184329

> <s_glide_core_constrain_type>
snapped_core_restrain

$$$$
lig_CHEMBL1084676
                    3D
 Schrodinger Suite 2022-3.
 65 68  0  0  1  0            999 V2000
   34.2631    7.0468   16.1866 H   0  0  0  0  0  0
   33.2769    7.3898   15.9062 C   0  0  0  0  0  0
   33.1229    8.2513   14.8062 C   0  0  0  0  0  0
   33.9834    8.5700   14.2392 H   0  0  0  0  0  0
   31.8400    8.7037   14.4458 C   0  0  0  0  0  0
   31.7264    9.3684   13.6005 H   0  0  0  0  0  0
   30.7070    8.2891   15.1766 C   0  0  0  0  0  0
   29.3274    8.7863   14.7784 C   0  0  2  0  0  0
   28.6085    8.3442   15.4682 H   0  0  0  0  0  0
   28.9879    8.2879   13.4531 N   0  0  0  0  0  0
   29.1493    7.2983   13.2981 H   0  0  0  0  0  0
   27.9725    8.9218   12.7263 C   0  0  0  0  0  0
   27.5793    8.3576   11.4990 C   0  0  0  0  0  0
   28.0295    7.4416   11.1448 H   0  0  0  0  0  0
   26.5952    8.9882   10.7152 C   0  0  0  0  0  0
   26.3089    8.5526    9.7695 H   0  0  0  0  0  0
   26.0005   10.1908   11.1452 C   0  0  0  0  0  0
   25.0125   10.9119   10.2493 C   0  0  0  0  0  0
   24.3257   10.0322    9.5207 F   0  0  0  0  0  0
   24.1544   11.6446   10.9583 F   0  0  0  0  0  0
   25.6851   11.7178    9.4277 F   0  0  0  0  0  0
   26.3848   10.7516   12.3784 C   0  0  0  0  0  0
   25.9581   11.6921   12.6999 H   0  0  0  0  0  0
   27.3635   10.1240   13.1716 C   0  0  0  0  0  0
   27.7978   10.7847   14.4677 C   0  0  1  0  0  0
   27.7937   11.8640   14.3036 H   0  0  0  0  0  0
   26.8824   10.4899   15.5192 O   0  0  0  0  0  0
   27.1446   11.2050   16.7224 C   0  0  1  0  0  0
   27.1861   12.2704   16.4801 H   0  0  0  0  0  0
   25.9306   11.0011   17.6657 C   0  0  0  0  0  0
   25.5991   11.9688   18.0499 H   0  0  0  0  0  0
   25.0798   10.6110   17.1035 H   0  0  0  0  0  0
   26.1960   10.1049   18.7857 N   0  0  0  0  0  0
   26.0900    9.1081   18.6595 H   0  0  0  0  0  0
   26.6883   10.5366   20.0037 C   0  0  0  0  0  0
   26.8994   11.7050   20.3304 O   0  0  0  0  0  0
   26.9366    9.4669   20.7708 O   0  0  0  0  0  0
   27.5122    9.6246   22.0607 C   0  0  0  0  0  0
   28.3646    8.9491   22.1102 H   0  0  0  0  0  0
   27.9243   10.6247   22.2080 H   0  0  0  0  0  0
   26.4869    9.2961   23.1654 C   0  0  0  0  0  0
   26.1972   10.2174   23.6689 H   0  0  0  0  0  0
   25.5739    8.8927   22.7287 H   0  0  0  0  0  0
   26.9884    8.3264   24.1732 N   0  3  0  0  0  0
   27.1753    6.9620   23.6256 C   0  0  0  0  0  0
   27.9548    6.9161   22.8633 H   0  0  0  0  0  0
   26.2444    6.6075   23.1752 H   0  0  0  0  0  0
   27.4452    6.2586   24.4164 H   0  0  0  0  0  0
   28.1437    8.8168   24.9609 C   0  0  0  0  0  0
   29.0294    8.9765   24.3447 H   0  0  0  0  0  0
   28.4049    8.1064   25.7498 H   0  0  0  0  0  0
   27.8984    9.7666   25.4409 H   0  0  0  0  0  0
   28.5208   10.7548   17.2672 C   0  0  0  0  0  0
   28.7763   11.3221   18.1627 H   0  0  0  0  0  0
   28.4909    9.7019   17.5513 H   0  0  0  0  0  0
   29.6112   10.9584   16.2163 C   0  0  0  0  0  0
   29.7693   12.0289   16.0784 H   0  0  0  0  0  0
   30.5556   10.5626   16.5834 H   0  0  0  0  0  0
   29.2138   10.3328   14.8633 C   0  0  1  0  0  0
   29.8969   10.7428   14.1205 H   0  0  0  0  0  0
   30.8626    7.4018   16.2613 C   0  0  0  0  0  0
   29.9988    7.0547   16.8072 H   0  0  0  0  0  0
   32.1482    6.9691   16.6335 C   0  0  0  0  0  0
   32.2665    6.2867   17.4652 H   0  0  0  0  0  0
   26.2397    8.2281   24.8448 H   0  0  0  0  0  0
  1  2  1  0  0  0
  2 63  1  0  0  0
  2  3  2  0  0  0
  3  4  1  0  0  0
  3  5  1  0  0  0
  5  6  1  0  0  0
  5  7  2  0  0  0
  7  8  1  0  0  0
  7 61  1  0  0  0
  8 59  1  0  0  0
  8  9  1  0  0  0
  8 10  1  0  0  0
 10 11  1  0  0  0
 10 12  1  0  0  0
 12 24  1  0  0  0
 12 13  2  0  0  0
 13 14  1  0  0  0
 13 15  1  0  0  0
 15 16  1  0  0  0
 15 17  2  0  0  0
 17 18  1  0  0  0
 17 22  1  0  0  0
 18 19  1  0  0  0
 18 20  1  0  0  0
 18 21  1  0  0  0
 22 23  1  0  0  0
 22 24  2  0  0  0
 24 25  1  0  0  0
 25 59  1  0  0  0
 25 26  1  0  0  0
 25 27  1  0  0  0
 27 28  1  0  0  0
 28 29  1  0  0  0
 28 30  1  0  0  0
 28 53  1  0  0  0
 30 31  1  0  0  0
 30 32  1  0  0  0
 30 33  1  0  0  0
 33 34  1  0  0  0
 33 35  1  0  0  0
 35 36  2  0  0  0
 35 37  1  0  0  0
 37 38  1  0  0  0
 38 39  1  0  0  0
 38 40  1  0  0  0
 38 41  1  0  0  0
 41 42  1  0  0  0
 41 43  1  0  0  0
 41 44  1  0  0  0
 44 45  1  0  0  0
 44 49  1  0  0  0
 44 65  1  0  0  0
 45 46  1  0  0  0
 45 47  1  0  0  0
 45 48  1  0  0  0
 49 50  1  0  0  0
 49 51  1  0  0  0
 49 52  1  0  0  0
 53 54  1  0  0  0
 53 55  1  0  0  0
 53 56  1  0  0  0
 56 57  1  0  0  0
 56 58  1  0  0  0
 56 59  1  0  0  0
 59 60  1  0  0  0
 61 62  1  0  0  0
 61 63  2  0  0  0
 63 64  1  0  0  0
M  CHG  1  44   1
M  END
> <s_m_source_file>
ligprep_eg5.smi

> <i_m_source_file_index>
13

> <i_lp_mmshare_version>
53161

> <i_f3d_flags>
0

> <s_epik_input>
W2NIXTFbY0hdW2NIXVtjSF1bY0hdYzFbQ0BIXShbTkhdMilbQ0BASF0oW0NASF0zYyhjMjQpW2NIXWMoQyhGKShGKUYpW2NIXVtjSF00KVtDSDJdW0NIMl1bQ0BASF0oTzMpW0NIMl1bTkhdQyg9TylPW0NIMl1bQ0gyXU4oW0NIM10pW0NIM10=

> <s_epik_cmdline>
J2VwaWtfcHl0aG9uJywgJy1waHQnLCAnMC4wJywgJy1waCcsICc3LjQnLCAnLXRuJywgJzgnLCAnLW1hJywgJzUwMCcsICctaW1hZScsICc8aW5maWxlLm1hZT4nLCAnLW9tYWUnLCAnPG91dGZpbGUubWFlPic=

> <r_epik_Ionization_Penalty>
  0.0488

> <r_epik_Ionization_Penalty_Charging>
  0.0488

> <r_epik_Ionization_Penalty_Neutral>
  0.0000

> <r_epik_State_Penalty>
  0.0416

> <r_epik_Charging_Adjusted_Penalty>
0.0904291

> <i_epik_Tot_Q>
1

> <i_epik_Tot_abs_Q>
1

> <s_epik_Chemistry_Notes>
This compound has an ester and may undergo hydrolysis at high or low pH.

> <s_lp_Force_Field>
S-OPLS

> <r_lp_Energy>
47.6644

> <b_lp_Chiralities_Consistent>
1

> <s_lp_Variant>
lig_CHEMBL1084676-1

> <s_i_glide_gridfile>
glide-grid_EG5-3L9H

> <i_i_glide_lignum>
13

> <i_i_glide_rotatable_bonds>
9

> <r_i_docking_score>
-8.55748566492015

> <r_i_glide_ligand_efficiency>
-0.251690754850593

> <r_i_glide_ligand_efficiency_sa>
-0.815380338727976

> <r_i_glide_ligand_efficiency_ln>
-1.89058861272343

> <r_i_glide_gscore>
-8.59908566492015

> <r_i_glide_lipo>
-4.58537464846225

> <r_i_glide_hbond>
-0.161843084530482

> <r_i_glide_metal>
-0

> <r_i_glide_rewards>
-1.23519247582576

> <r_i_glide_evdw>
-51.6746711730957

> <r_i_glide_ecoul>
-4.80143117904663

> <r_i_glide_erotb>
0.707987752393848

> <r_i_glide_esite>
-0.0207149729837261

> <r_i_glide_emodel>
-98.75268454923

> <r_i_glide_energy>
-56.4761023521423

> <r_i_glide_einternal>
4.67261600494385

> <i_i_glide_confnum>
22

> <i_i_glide_posenum>
62

> <r_i_glide_eff_state_penalty>
0.0416

> <r_i_glide_rmsd>
0.0479812607239537

> <s_glide_core_constrain_type>
snapped_core_restrain

$$$$
lig_CHEMBL1084935
                    3D
 Schrodinger Suite 2022-3.
 70 73  0  0  1  0            999 V2000
   25.0798    6.4768   17.5106 H   0  0  0  0  0  0
   24.3850    6.9813   17.9250 O   0  0  0  0  0  0
   24.5730    8.3507   17.6135 C   0  0  0  0  0  0
   25.3544    8.4369   16.8542 H   0  0  0  0  0  0
   23.6520    8.7262   17.1591 H   0  0  0  0  0  0
   24.9031    9.1560   18.8964 C   0  0  0  0  0  0
   24.0404    9.7650   19.1683 H   0  0  0  0  0  0
   25.0397    8.4566   19.7210 H   0  0  0  0  0  0
   26.1108   10.0209   18.7712 N   0  3  2  0  0  0
   26.5673   10.5646   20.0754 C   0  0  0  0  0  0
   27.2638   11.3822   19.8986 H   0  0  0  0  0  0
   25.7257   10.9866   20.6286 H   0  0  0  0  0  0
   27.2992    9.5034   20.9067 C   0  0  0  0  0  0
   27.7963    9.9607   21.7639 H   0  0  0  0  0  0
   28.0542    9.0077   20.3011 H   0  0  0  0  0  0
   26.6212    8.7424   21.2964 H   0  0  0  0  0  0
   25.9587   11.0564   17.7148 C   0  0  0  0  0  0
   25.0695   10.9080   17.1118 H   0  0  0  0  0  0
   25.7827   12.0241   18.2024 H   0  0  0  0  0  0
   27.1818   11.1927   16.7677 C   0  0  2  0  0  0
   27.2513   12.2504   16.4973 H   0  0  0  0  0  0
   26.9041   10.4585   15.5792 O   0  0  0  0  0  0
   27.8305   10.7250   14.5238 C   0  0  2  0  0  0
   27.8368   11.8002   14.3399 H   0  0  0  0  0  0
   27.3981   10.0641   13.2265 C   0  0  0  0  0  0
   26.3990   10.6726   12.4559 C   0  0  0  0  0  0
   25.9383   11.5552   12.8703 H   0  0  0  0  0  0
   26.0361   10.1474   11.2060 C   0  0  0  0  0  0
   25.0158   10.8436   10.3046 C   0  0  0  0  0  0
   24.0733    9.7978    9.7104 C   0  0  0  0  0  0
   23.2521   10.1887    9.1195 H   0  0  0  0  0  0
   23.5849    9.3905   10.5804 H   0  0  0  0  0  0
   24.5495    9.0134    9.1157 H   0  0  0  0  0  0
   25.7906   11.6274    9.2438 C   0  0  0  0  0  0
   26.4572   10.9524    8.7188 H   0  0  0  0  0  0
   26.3849   12.4008    9.7258 H   0  0  0  0  0  0
   25.1881   12.1516    8.5066 H   0  0  0  0  0  0
   24.1272   11.8268   11.0717 C   0  0  0  0  0  0
   23.4090   12.3112   10.4051 H   0  0  0  0  0  0
   24.7435   12.5883   11.5131 H   0  0  0  0  0  0
   23.5851   11.3576   11.8817 H   0  0  0  0  0  0
   26.6991    8.9886   10.7364 C   0  0  0  0  0  0
   26.4948    8.5766    9.7621 H   0  0  0  0  0  0
   27.6648    8.3508   11.5212 C   0  0  0  0  0  0
   28.1660    7.4729   11.1410 H   0  0  0  0  0  0
   28.0275    8.8867   12.7690 C   0  0  0  0  0  0
   29.0381    8.2449   13.4999 N   0  0  0  0  0  0
   29.2026    7.2563   13.3375 H   0  0  0  0  0  0
   29.3656    8.7382   14.8322 C   0  0  1  0  0  0
   28.6416    8.2922   15.5185 H   0  0  0  0  0  0
   30.7455    8.2570   15.2299 C   0  0  0  0  0  0
   31.8743    8.6652   14.4815 C   0  0  0  0  0  0
   31.7520    9.3092   13.6238 H   0  0  0  0  0  0
   33.1604    8.2279   14.8521 C   0  0  0  0  0  0
   34.0060    8.5595   14.2811 H   0  0  0  0  0  0
   33.3193    7.3889   15.9611 C   0  0  0  0  0  0
   34.3108    7.0600   16.2514 H   0  0  0  0  0  0
   32.1919    6.9528   16.6838 C   0  0  0  0  0  0
   32.3158    6.2811   17.5154 H   0  0  0  0  0  0
   30.9069    7.3866   16.3191 C   0  0  0  0  0  0
   30.0444    7.0329   16.8656 H   0  0  0  0  0  0
   29.2476   10.2810   14.9239 C   0  0  2  0  0  0
   29.9272   10.6950   14.1785 H   0  0  0  0  0  0
   29.6473   10.9133   16.2755 C   0  0  0  0  0  0
   30.5879   10.5139   16.6418 H   0  0  0  0  0  0
   29.8090   11.9820   16.1240 H   0  0  0  0  0  0
   28.5497   10.7343   17.3309 C   0  0  0  0  0  0
   28.8131   11.3124   18.2174 H   0  0  0  0  0  0
   28.5127    9.6845   17.6290 H   0  0  0  0  0  0
   26.8329    9.4057   18.4319 H   0  0  0  0  0  0
  1  2  1  0  0  0
  2  3  1  0  0  0
  3  4  1  0  0  0
  3  5  1  0  0  0
  3  6  1  0  0  0
  6  7  1  0  0  0
  6  8  1  0  0  0
  6  9  1  0  0  0
  9 10  1  0  0  0
  9 17  1  0  0  0
  9 70  1  0  0  0
 10 11  1  0  0  0
 10 12  1  0  0  0
 10 13  1  0  0  0
 13 14  1  0  0  0
 13 15  1  0  0  0
 13 16  1  0  0  0
 17 18  1  0  0  0
 17 19  1  0  0  0
 17 20  1  0  0  0
 20 67  1  0  0  0
 20 21  1  0  0  0
 20 22  1  0  0  0
 22 23  1  0  0  0
 23 62  1  0  0  0
 23 24  1  0  0  0
 23 25  1  0  0  0
 25 46  1  0  0  0
 25 26  2  0  0  0
 26 27  1  0  0  0
 26 28  1  0  0  0
 28 29  1  0  0  0
 28 42  2  0  0  0
 29 30  1  0  0  0
 29 34  1  0  0  0
 29 38  1  0  0  0
 30 31  1  0  0  0
 30 32  1  0  0  0
 30 33  1  0  0  0
 34 35  1  0  0  0
 34 36  1  0  0  0
 34 37  1  0  0  0
 38 39  1  0  0  0
 38 40  1  0  0  0
 38 41  1  0  0  0
 42 43  1  0  0  0
 42 44  1  0  0  0
 44 45  1  0  0  0
 44 46  2  0  0  0
 46 47  1  0  0  0
 47 48  1  0  0  0
 47 49  1  0  0  0
 49 50  1  0  0  0
 49 51  1  0  0  0
 49 62  1  0  0  0
 51 60  1  0  0  0
 51 52  2  0  0  0
 52 53  1  0  0  0
 52 54  1  0  0  0
 54 55  1  0  0  0
 54 56  2  0  0  0
 56 57  1  0  0  0
 56 58  1  0  0  0
 58 59  1  0  0  0
 58 60  2  0  0  0
 60 61  1  0  0  0
 62 63  1  0  0  0
 62 64  1  0  0  0
 64 65  1  0  0  0
 64 66  1  0  0  0
 64 67  1  0  0  0
 67 68  1  0  0  0
 67 69  1  0  0  0
M  CHG  1   9   1
M  END
> <s_m_source_file>
ligprep_eg5.smi

> <i_m_source_file_index>
16

> <i_lp_mmshare_version>
53161

> <i_f3d_flags>
0

> <s_epik_input>
W09IXVtDSDJdW0NIMl1OKFtDSDJdW0NIM10pW0NIMl1bQ0BIXShPMSlbQ0gyXVtDSDJdW0NASF0yW0NASF0oYzNbY0hdW2NIXVtjSF1bY0hdW2NIXTMpW05IXWMoYzRbQ0BASF0xMilbY0hdW2NIXWMoW2NIXTQpQyhbQ0gzXSkoW0NIM10pW0NIM10=

> <s_epik_cmdline>
J2VwaWtfcHl0aG9uJywgJy1waHQnLCAnMC4wJywgJy1waCcsICc3LjQnLCAnLXRuJywgJzgnLCAnLW1hJywgJzUwMCcsICctaW1hZScsICc8aW5maWxlLm1hZT4nLCAnLW9tYWUnLCAnPG91dGZpbGUubWFlPic=

> <r_epik_Ionization_Penalty>
  0.2099

> <r_epik_Ionization_Penalty_Charging>
  0.2095

> <r_epik_Ionization_Penalty_Neutral>
  0.0003

> <r_epik_State_Penalty>
  0.1996

> <r_epik_Charging_Adjusted_Penalty>
0.409142

> <i_epik_Tot_Q>
1

> <i_epik_Tot_abs_Q>
1

> <s_lp_Force_Field>
S-OPLS

> <r_lp_Energy>
51.358

> <b_lp_Chiralities_Consistent>
1

> <s_lp_Variant>
lig_CHEMBL1084935-2

> <s_i_glide_gridfile>
glide-grid_EG5-3L9H

> <i_i_glide_lignum>
17

> <i_i_glide_rotatable_bonds>
8

> <r_i_docking_score>
-8.48690949119332

> <r_i_glide_ligand_efficiency>
-0.273771273909462

> <r_i_glide_ligand_efficiency_sa>
-0.860019782055296

> <r_i_glide_ligand_efficiency_ln>
-1.91405818280407

> <r_i_glide_gscore>
-8.68650949119332

> <r_i_glide_lipo>
-5.07714386840577

> <r_i_glide_hbond>
-0.500851312107088

> <r_i_glide_metal>
-0

> <r_i_glide_rewards>
-0.701547662786834

> <r_i_glide_evdw>
-46.729808807373

> <r_i_glide_ecoul>
-5.62446928024292

> <r_i_glide_erotb>
0.773194184511463

> <r_i_glide_esite>
0

> <r_i_glide_emodel>
-64.5703659518333

> <r_i_glide_energy>
-52.354278087616

> <r_i_glide_einternal>
5.61762857437134

> <i_i_glide_confnum>
51

> <i_i_glide_posenum>
232

> <r_i_glide_eff_state_penalty>
0.1996

> <r_i_glide_rmsd>
0.107332582977005

> <s_glide_core_constrain_type>
snapped_core_restrain

$$$$
lig_CHEMBL1084935
                    3D
 Schrodinger Suite 2022-3.
 70 73  0  0  1  0            999 V2000
   28.0227    8.8199   22.3965 H   0  0  0  0  0  0
   27.9951    9.4556   21.6947 O   0  0  0  0  0  0
   26.6748    9.5586   21.2226 C   0  0  0  0  0  0
   26.3977    8.5595   20.9226 H   0  0  0  0  0  0
   26.0246    9.8414   22.0523 H   0  0  0  0  0  0
   26.5775   10.5850   20.0780 C   0  0  0  0  0  0
   25.9096   11.3888   20.3947 H   0  0  0  0  0  0
   27.5390   11.0579   19.9229 H   0  0  0  0  0  0
   26.0961   10.0291   18.7918 N   0  3  1  0  0  0
   24.7892    9.2747   18.9023 C   0  0  0  0  0  0
   24.6689    8.7726   19.8583 H   0  0  0  0  0  0
   23.9398    9.9622   18.8570 H   0  0  0  0  0  0
   24.6524    8.1781   17.8324 C   0  0  0  0  0  0
   23.7660    7.5742   18.0178 H   0  0  0  0  0  0
   25.5074    7.5035   17.8464 H   0  0  0  0  0  0
   24.5618    8.5930   16.8302 H   0  0  0  0  0  0
   25.9793   11.0483   17.7120 C   0  0  0  0  0  0
   25.0870   10.9160   17.0922 H   0  0  0  0  0  0
   25.8202   12.0187   18.1849 H   0  0  0  0  0  0
   27.2006   11.1830   16.7682 C   0  0  2  0  0  0
   27.2650   12.2398   16.4974 H   0  0  0  0  0  0
   26.9221   10.4564   15.5764 O   0  0  0  0  0  0
   27.8329   10.7402   14.5151 C   0  0  2  0  0  0
   27.8326   11.8167   14.3329 H   0  0  0  0  0  0
   27.4033   10.0687   13.2268 C   0  0  0  0  0  0
   26.4208   10.6904   12.4374 C   0  0  0  0  0  0
   25.9981   11.6083   12.8039 H   0  0  0  0  0  0
   26.0590   10.1528   11.1799 C   0  0  0  0  0  0
   25.0393   10.8521   10.2745 C   0  0  0  0  0  0
   25.8155   11.6720    9.2413 C   0  0  0  0  0  0
   25.1901   12.1743    8.5097 H   0  0  0  0  0  0
   26.5106   11.0315    8.7087 H   0  0  0  0  0  0
   26.3852   12.4562    9.7445 H   0  0  0  0  0  0
   24.1072   11.7883   11.0552 C   0  0  0  0  0  0
   24.6648   12.5884   11.5226 H   0  0  0  0  0  0
   23.5955   11.2587   11.8546 H   0  0  0  0  0  0
   23.3485   12.2374   10.4140 H   0  0  0  0  0  0
   24.1135    9.8016    9.6460 C   0  0  0  0  0  0
   23.3391   10.1869    9.0217 H   0  0  0  0  0  0
   23.5849    9.3887   10.4730 H   0  0  0  0  0  0
   24.6026    9.0117    9.0769 H   0  0  0  0  0  0
   26.7095    8.9786   10.7390 C   0  0  0  0  0  0
   26.4943    8.5505    9.7720 H   0  0  0  0  0  0
   27.6622    8.3446   11.5310 C   0  0  0  0  0  0
   28.1418    7.4352   11.1693 H   0  0  0  0  0  0
   28.0222    8.8806   12.7751 C   0  0  0  0  0  0
   29.0340    8.2454   13.5139 N   0  0  0  0  0  0
   29.2068    7.2647   13.3492 H   0  0  0  0  0  0
   29.3635    8.7551   14.8315 C   0  0  1  0  0  0
   28.6381    8.3202   15.5223 H   0  0  0  0  0  0
   30.7400    8.2655   15.2240 C   0  0  0  0  0  0
   31.8638    8.6760   14.4765 C   0  0  0  0  0  0
   31.7432    9.3286   13.6261 H   0  0  0  0  0  0
   33.1466    8.2331   14.8325 C   0  0  0  0  0  0
   33.9935    8.5512   14.2488 H   0  0  0  0  0  0
   33.3170    7.3902   15.9446 C   0  0  0  0  0  0
   34.3017    7.0450   16.2161 H   0  0  0  0  0  0
   32.1927    6.9609   16.6779 C   0  0  0  0  0  0
   32.3161    6.2889   17.5147 H   0  0  0  0  0  0
   30.9024    7.3895   16.3143 C   0  0  0  0  0  0
   30.0416    7.0468   16.8690 H   0  0  0  0  0  0
   29.2527   10.3003   14.9052 C   0  0  2  0  0  0
   29.9287   10.7067   14.1506 H   0  0  0  0  0  0
   29.6597   10.9368   16.2496 C   0  0  0  0  0  0
   30.6114   10.5478   16.6077 H   0  0  0  0  0  0
   29.8173   12.0053   16.0947 H   0  0  0  0  0  0
   28.5758   10.7463   17.3173 C   0  0  0  0  0  0
   28.8517   11.3346   18.1910 H   0  0  0  0  0  0
   28.5504    9.7003   17.6210 H   0  0  0  0  0  0
   26.7554    9.3354   18.4785 H   0  0  0  0  0  0
  1  2  1  0  0  0
  2  3  1  0  0  0
  3  4  1  0  0  0
  3  5  1  0  0  0
  3  6  1  0  0  0
  6  7  1  0  0  0
  6  8  1  0  0  0
  6  9  1  0  0  0
  9 10  1  0  0  0
  9 17  1  0  0  0
  9 70  1  0  0  0
 10 11  1  0  0  0
 10 12  1  0  0  0
 10 13  1  0  0  0
 13 14  1  0  0  0
 13 15  1  0  0  0
 13 16  1  0  0  0
 17 18  1  0  0  0
 17 19  1  0  0  0
 17 20  1  0  0  0
 20 67  1  0  0  0
 20 21  1  0  0  0
 20 22  1  0  0  0
 22 23  1  0  0  0
 23 62  1  0  0  0
 23 24  1  0  0  0
 23 25  1  0  0  0
 25 46  1  0  0  0
 25 26  2  0  0  0
 26 27  1  0  0  0
 26 28  1  0  0  0
 28 29  1  0  0  0
 28 42  2  0  0  0
 29 30  1  0  0  0
 29 34  1  0  0  0
 29 38  1  0  0  0
 30 31  1  0  0  0
 30 32  1  0  0  0
 30 33  1  0  0  0
 34 35  1  0  0  0
 34 36  1  0  0  0
 34 37  1  0  0  0
 38 39  1  0  0  0
 38 40  1  0  0  0
 38 41  1  0  0  0
 42 43  1  0  0  0
 42 44  1  0  0  0
 44 45  1  0  0  0
 44 46  2  0  0  0
 46 47  1  0  0  0
 47 48  1  0  0  0
 47 49  1  0  0  0
 49 50  1  0  0  0
 49 51  1  0  0  0
 49 62  1  0  0  0
 51 60  1  0  0  0
 51 52  2  0  0  0
 52 53  1  0  0  0
 52 54  1  0  0  0
 54 55  1  0  0  0
 54 56  2  0  0  0
 56 57  1  0  0  0
 56 58  1  0  0  0
 58 59  1  0  0  0
 58 60  2  0  0  0
 60 61  1  0  0  0
 62 63  1  0  0  0
 62 64  1  0  0  0
 64 65  1  0  0  0
 64 66  1  0  0  0
 64 67  1  0  0  0
 67 68  1  0  0  0
 67 69  1  0  0  0
M  CHG  1   9   1
M  END
> <s_m_source_file>
ligprep_eg5.smi

> <i_m_source_file_index>
16

> <i_lp_mmshare_version>
53161

> <i_f3d_flags>
0

> <s_epik_input>
W09IXVtDSDJdW0NIMl1OKFtDSDJdW0NIM10pW0NIMl1bQ0BIXShPMSlbQ0gyXVtDSDJdW0NASF0yW0NASF0oYzNbY0hdW2NIXVtjSF1bY0hdW2NIXTMpW05IXWMoYzRbQ0BASF0xMilbY0hdW2NIXWMoW2NIXTQpQyhbQ0gzXSkoW0NIM10pW0NIM10=

> <s_epik_cmdline>
J2VwaWtfcHl0aG9uJywgJy1waHQnLCAnMC4wJywgJy1waCcsICc3LjQnLCAnLXRuJywgJzgnLCAnLW1hJywgJzUwMCcsICctaW1hZScsICc8aW5maWxlLm1hZT4nLCAnLW9tYWUnLCAnPG91dGZpbGUubWFlPic=

> <r_epik_Ionization_Penalty>
  0.2099

> <r_epik_Ionization_Penalty_Charging>
  0.2095

> <r_epik_Ionization_Penalty_Neutral>
  0.0003

> <r_epik_State_Penalty>
  0.1996

> <r_epik_Charging_Adjusted_Penalty>
0.409142

> <i_epik_Tot_Q>
1

> <i_epik_Tot_abs_Q>
1

> <s_lp_Force_Field>
S-OPLS

> <r_lp_Energy>
53.7729

> <b_lp_Chiralities_Consistent>
1

> <s_lp_Variant>
lig_CHEMBL1084935-1

> <s_i_glide_gridfile>
glide-grid_EG5-3L9H

> <i_i_glide_lignum>
16

> <i_i_glide_rotatable_bonds>
8

> <r_i_docking_score>
-8.4504524408849

> <r_i_glide_ligand_efficiency>
-0.272595240028545

> <r_i_glide_ligand_efficiency_sa>
-0.856325411979456

> <r_i_glide_ligand_efficiency_ln>
-1.9058360006851

> <r_i_glide_gscore>
-8.6500524408849

> <r_i_glide_lipo>
-5.11195445752728

> <r_i_glide_hbond>
-0.453621217513014

> <r_i_glide_metal>
-0

> <r_i_glide_rewards>
-0.710757088127667

> <r_i_glide_evdw>
-44.5950889587402

> <r_i_glide_ecoul>
-6.11439609527588

> <r_i_glide_erotb>
0.773194184511463

> <r_i_glide_esite>
0

> <r_i_glide_emodel>
-62.8328902316395

> <r_i_glide_energy>
-50.7094850540161

> <r_i_glide_einternal>
6.31344175338745

> <i_i_glide_confnum>
103

> <i_i_glide_posenum>
394

> <r_i_glide_eff_state_penalty>
0.1996

> <r_i_glide_rmsd>
0.101821539419745

> <s_glide_core_constrain_type>
snapped_core_restrain

$$$$
lig_CHEMBL1086410
                    3D
 Schrodinger Suite 2022-3.
 60 63  0  0  1  0            999 V2000
   34.3034    7.0460   16.2168 H   0  0  0  0  0  0
   33.3156    7.3882   15.9426 C   0  0  0  0  0  0
   32.1922    6.9651   16.6778 C   0  0  0  0  0  0
   32.3170    6.2969   17.5183 H   0  0  0  0  0  0
   30.9031    7.4005   16.3189 C   0  0  0  0  0  0
   30.0444    7.0638   16.8805 H   0  0  0  0  0  0
   30.7405    8.2749   15.2271 C   0  0  0  0  0  0
   29.3647    8.7641   14.8317 C   0  0  2  0  0  0
   28.6412    8.3330   15.5255 H   0  0  0  0  0  0
   29.0309    8.2521   13.5094 N   0  0  0  0  0  0
   29.1983    7.2661   13.3467 H   0  0  0  0  0  0
   28.0238    8.8838   12.7705 C   0  0  0  0  0  0
   27.6593    8.3476   11.5211 C   0  0  0  0  0  0
   28.1425    7.4524   11.1518 H   0  0  0  0  0  0
   26.6986    8.9884   10.7317 C   0  0  0  0  0  0
   26.4843    8.5701    9.7628 H   0  0  0  0  0  0
   26.0447   10.1574   11.1873 C   0  0  0  0  0  0
   25.0202   10.8597   10.2912 C   0  0  0  0  0  0
   25.7980   11.6768    9.2530 C   0  0  0  0  0  0
   25.1872   12.1988    8.5262 H   0  0  0  0  0  0
   26.4733   11.0254    8.7190 H   0  0  0  0  0  0
   26.3851   12.4480    9.7456 H   0  0  0  0  0  0
   24.1152   11.8173   11.0744 C   0  0  0  0  0  0
   24.7209   12.5880   11.5191 H   0  0  0  0  0  0
   23.5850   11.3359   11.8895 H   0  0  0  0  0  0
   23.3776   12.2980   10.4313 H   0  0  0  0  0  0
   24.0854    9.8116    9.6805 C   0  0  0  0  0  0
   23.2668   10.1885    9.0946 H   0  0  0  0  0  0
   23.5862    9.3885   10.5344 H   0  0  0  0  0  0
   24.5652    9.0305    9.0938 H   0  0  0  0  0  0
   26.4056   10.6803   12.4474 C   0  0  0  0  0  0
   25.9735   11.5884   12.8336 H   0  0  0  0  0  0
   27.3977   10.0666   13.2261 C   0  0  0  0  0  0
   27.8277   10.7418   14.5119 C   0  0  1  0  0  0
   27.8251   11.8180   14.3240 H   0  0  0  0  0  0
   26.9175   10.4606   15.5761 O   0  0  0  0  0  0
   27.1892   11.2057   16.7569 C   0  0  1  0  0  0
   27.2333   12.2597   16.4759 H   0  0  0  0  0  0
   25.9858   11.0621   17.7207 C   0  0  0  0  0  0
   25.7693   12.0180   18.1978 H   0  0  0  0  0  0
   25.0963   10.8230   17.1352 H   0  0  0  0  0  0
   26.1402   10.0160   18.7583 N   0  3  0  0  0  0
   25.2320    9.5992   18.9092 H   0  0  0  0  0  0
   26.6183   10.5076   20.0694 C   0  0  0  0  0  0
   26.6969    9.6796   20.7731 H   0  0  0  0  0  0
   25.9206   11.2363   20.4812 H   0  0  0  0  0  0
   27.5960   10.9785   19.9937 H   0  0  0  0  0  0
   28.5688   10.7757   17.3021 C   0  0  0  0  0  0
   28.8354   11.3639   18.1789 H   0  0  0  0  0  0
   28.5539    9.7281   17.6041 H   0  0  0  0  0  0
   29.6518   10.9643   16.2364 C   0  0  0  0  0  0
   29.7974   12.0335   16.0728 H   0  0  0  0  0  0
   30.6069   10.5868   16.5982 H   0  0  0  0  0  0
   29.2505   10.3108   14.8979 C   0  0  1  0  0  0
   29.9251   10.7147   14.1407 H   0  0  0  0  0  0
   31.8648    8.6803   14.4789 C   0  0  0  0  0  0
   31.7444    9.3331   13.6262 H   0  0  0  0  0  0
   33.1475    8.2346   14.8331 C   0  0  0  0  0  0
   33.9934    8.5530   14.2485 H   0  0  0  0  0  0
   26.7514    9.2938   18.4060 H   0  0  0  0  0  0
  1  2  1  0  0  0
  2 58  1  0  0  0
  2  3  2  0  0  0
  3  4  1  0  0  0
  3  5  1  0  0  0
  5  6  1  0  0  0
  5  7  2  0  0  0
  7  8  1  0  0  0
  7 56  1  0  0  0
  8 54  1  0  0  0
  8  9  1  0  0  0
  8 10  1  0  0  0
 10 11  1  0  0  0
 10 12  1  0  0  0
 12 33  1  0  0  0
 12 13  2  0  0  0
 13 14  1  0  0  0
 13 15  1  0  0  0
 15 16  1  0  0  0
 15 17  2  0  0  0
 17 18  1  0  0  0
 17 31  1  0  0  0
 18 19  1  0  0  0
 18 23  1  0  0  0
 18 27  1  0  0  0
 19 20  1  0  0  0
 19 21  1  0  0  0
 19 22  1  0  0  0
 23 24  1  0  0  0
 23 25  1  0  0  0
 23 26  1  0  0  0
 27 28  1  0  0  0
 27 29  1  0  0  0
 27 30  1  0  0  0
 31 32  1  0  0  0
 31 33  2  0  0  0
 33 34  1  0  0  0
 34 54  1  0  0  0
 34 35  1  0  0  0
 34 36  1  0  0  0
 36 37  1  0  0  0
 37 38  1  0  0  0
 37 39  1  0  0  0
 37 48  1  0  0  0
 39 40  1  0  0  0
 39 41  1  0  0  0
 39 42  1  0  0  0
 42 43  1  0  0  0
 42 44  1  0  0  0
 42 60  1  0  0  0
 44 45  1  0  0  0
 44 46  1  0  0  0
 44 47  1  0  0  0
 48 49  1  0  0  0
 48 50  1  0  0  0
 48 51  1  0  0  0
 51 52  1  0  0  0
 51 53  1  0  0  0
 51 54  1  0  0  0
 54 55  1  0  0  0
 56 57  1  0  0  0
 56 58  2  0  0  0
 58 59  1  0  0  0
M  CHG  1  42   1
M  END
> <s_m_source_file>
ligprep_eg5.smi

> <i_m_source_file_index>
21

> <i_lp_mmshare_version>
53161

> <i_f3d_flags>
0

> <s_epik_input>
W2NIXTFbY0hdW2NIXVtjSF1bY0hdYzFbQ0BIXShbTkhdMilbQ0BASF0oW0NASF0zYyhjMjQpW2NIXWMoW2NIXVtjSF00KUMoW0NIM10pKFtDSDNdKVtDSDNdKVtDSDJdW0NIMl1bQ0BASF0oTzMpW0NIMl1bTkhdW0NIM10=

> <s_epik_cmdline>
J2VwaWtfcHl0aG9uJywgJy1waHQnLCAnMC4wJywgJy1waCcsICc3LjQnLCAnLXRuJywgJzgnLCAnLW1hJywgJzUwMCcsICctaW1hZScsICc8aW5maWxlLm1hZT4nLCAnLW9tYWUnLCAnPG91dGZpbGUubWFlPic=

> <r_lp_tautomer_probability>
1

> <r_epik_Ionization_Penalty>
  0.0027

> <r_epik_Ionization_Penalty_Charging>
  0.0023

> <r_epik_Ionization_Penalty_Neutral>
  0.0004

> <r_epik_State_Penalty>
 -0.0000

> <r_epik_Charging_Adjusted_Penalty>
0.00233856

> <i_epik_Tot_Q>
1

> <i_epik_Tot_abs_Q>
1

> <s_lp_Force_Field>
S-OPLS

> <r_lp_Energy>
42.9625

> <b_lp_Chiralities_Consistent>
1

> <s_lp_Variant>
lig_CHEMBL1086410-1

> <s_i_glide_gridfile>
glide-grid_EG5-3L9H

> <i_i_glide_lignum>
22

> <i_i_glide_rotatable_bonds>
4

> <r_i_docking_score>
-8.44339112023165

> <r_i_glide_ligand_efficiency>
-0.312718189638209

> <r_i_glide_ligand_efficiency_sa>
-0.93815456788396

> <r_i_glide_ligand_efficiency_ln>
-1.96548225260823

> <r_i_glide_gscore>
-8.44339112023165

> <r_i_glide_lipo>
-5.11081688805815

> <r_i_glide_hbond>
-0.192406234618827

> <r_i_glide_metal>
-0

> <r_i_glide_rewards>
-1.10691026565731

> <r_i_glide_evdw>
-42.2594757080078

> <r_i_glide_ecoul>
-3.30793595314026

> <r_i_glide_erotb>
0.575906446474057

> <r_i_glide_esite>
0

> <r_i_glide_emodel>
-56.4524812908641

> <r_i_glide_energy>
-45.5674116611481

> <r_i_glide_einternal>
0.818700671195984

> <i_i_glide_confnum>
4

> <i_i_glide_posenum>
3

> <r_i_glide_eff_state_penalty>
-0

> <r_i_glide_rmsd>
0.098368472648139

> <s_glide_core_constrain_type>
snapped_core_restrain

$$$$
lig_CHEMBL1086409
                    3D
 Schrodinger Suite 2022-3.
 51 54  0  0  1  0            999 V2000
   33.9825    8.5632   14.3524 H   0  0  0  0  0  0
   33.0906    8.2280   14.8604 C   0  0  0  0  0  0
   31.8246    8.6697   14.4384 C   0  0  0  0  0  0
   31.7460    9.3316   13.5884 H   0  0  0  0  0  0
   30.6644    8.2651   15.1328 C   0  0  0  0  0  0
   29.3047    8.7817   14.7172 C   0  0  2  0  0  0
   28.5580    8.3489   15.3859 H   0  0  0  0  0  0
   28.9907    8.3067   13.3824 N   0  0  0  0  0  0
   29.1766    7.3290   13.1982 H   0  0  0  0  0  0
   27.9609    8.9352   12.6763 C   0  0  0  0  0  0
   27.5740    8.3747   11.4443 C   0  0  0  0  0  0
   28.0511    7.4775   11.0792 H   0  0  0  0  0  0
   26.5727    8.9889   10.6731 C   0  0  0  0  0  0
   26.2980    8.5637    9.7194 H   0  0  0  0  0  0
   25.9595   10.1765   11.1211 C   0  0  0  0  0  0
   24.9528   10.8868   10.2356 C   0  0  0  0  0  0
   25.6100   11.6912    9.4000 F   0  0  0  0  0  0
   24.2584   10.0015    9.5199 F   0  0  0  0  0  0
   24.1089   11.6271   10.9548 F   0  0  0  0  0  0
   26.3289   10.7260   12.3683 C   0  0  0  0  0  0
   25.8701   11.6399   12.7175 H   0  0  0  0  0  0
   27.3321   10.1147   13.1462 C   0  0  0  0  0  0
   27.7792   10.7745   14.4410 C   0  0  1  0  0  0
   27.7841   11.8529   14.2758 H   0  0  0  0  0  0
   26.8824   10.4827   15.5190 O   0  0  0  0  0  0
   27.1787   11.1986   16.7154 C   0  0  1  0  0  0
   27.2406   12.2552   16.4490 H   0  0  0  0  0  0
   25.9880   11.0676   17.7007 C   0  0  0  0  0  0
   25.8089   12.0277   18.1864 H   0  0  0  0  0  0
   25.0795   10.8619   17.1347 H   0  0  0  0  0  0
   26.1393   10.0266   18.7447 N   0  3  0  0  0  0
   25.2281    9.6164   18.8975 H   0  0  0  0  0  0
   26.6210   10.5046   20.0555 C   0  0  0  0  0  0
   26.6896    9.6636   20.7457 H   0  0  0  0  0  0
   25.9285   11.2323   20.4815 H   0  0  0  0  0  0
   27.6066   10.9625   19.9850 H   0  0  0  0  0  0
   28.5558   10.7411   17.2377 C   0  0  0  0  0  0
   28.8411   11.3068   18.1235 H   0  0  0  0  0  0
   28.5323    9.6881   17.5186 H   0  0  0  0  0  0
   29.6251   10.9445   16.1618 C   0  0  0  0  0  0
   29.7780   12.0157   16.0190 H   0  0  0  0  0  0
   30.5823   10.5491   16.4992 H   0  0  0  0  0  0
   29.2042   10.3258   14.8128 C   0  0  1  0  0  0
   29.8839   10.7318   14.0608 H   0  0  0  0  0  0
   30.7658    7.3695   16.2131 C   0  0  0  0  0  0
   29.8773    7.0355   16.7260 H   0  0  0  0  0  0
   32.0300    6.9363   16.6385 C   0  0  0  0  0  0
   32.1186    6.2827   17.4952 H   0  0  0  0  0  0
   33.1872    7.3856   15.9804 C   0  0  0  0  0  0
   34.3849    7.0437   16.4876 F   0  0  0  0  0  0
   26.7431    9.2978   18.3920 H   0  0  0  0  0  0
  1  2  1  0  0  0
  2 49  1  0  0  0
  2  3  2  0  0  0
  3  4  1  0  0  0
  3  5  1  0  0  0
  5  6  1  0  0  0
  5 45  2  0  0  0
  6 43  1  0  0  0
  6  7  1  0  0  0
  6  8  1  0  0  0
  8  9  1  0  0  0
  8 10  1  0  0  0
 10 22  1  0  0  0
 10 11  2  0  0  0
 11 12  1  0  0  0
 11 13  1  0  0  0
 13 14  1  0  0  0
 13 15  2  0  0  0
 15 16  1  0  0  0
 15 20  1  0  0  0
 16 17  1  0  0  0
 16 18  1  0  0  0
 16 19  1  0  0  0
 20 21  1  0  0  0
 20 22  2  0  0  0
 22 23  1  0  0  0
 23 43  1  0  0  0
 23 24  1  0  0  0
 23 25  1  0  0  0
 25 26  1  0  0  0
 26 27  1  0  0  0
 26 28  1  0  0  0
 26 37  1  0  0  0
 28 29  1  0  0  0
 28 30  1  0  0  0
 28 31  1  0  0  0
 31 32  1  0  0  0
 31 33  1  0  0  0
 31 51  1  0  0  0
 33 34  1  0  0  0
 33 35  1  0  0  0
 33 36  1  0  0  0
 37 38  1  0  0  0
 37 39  1  0  0  0
 37 40  1  0  0  0
 40 41  1  0  0  0
 40 42  1  0  0  0
 40 43  1  0  0  0
 43 44  1  0  0  0
 45 46  1  0  0  0
 45 47  1  0  0  0
 47 48  1  0  0  0
 47 49  2  0  0  0
 49 50  1  0  0  0
M  CHG  1  31   1
M  END
> <s_m_source_file>
ligprep_eg5.smi

> <i_m_source_file_index>
20

> <i_lp_mmshare_version>
53161

> <i_f3d_flags>
0

> <s_epik_input>
W2NIXTFbY0hdYyhGKVtjSF1bY0hdYzFbQ0BIXShbTkhdMilbQ0BASF0oW0NASF0zYyhjMjQpW2NIXWMoQyhGKShGKUYpW2NIXVtjSF00KVtDSDJdW0NIMl1bQ0BASF0oTzMpW0NIMl1bTkhdW0NIM10=

> <s_epik_cmdline>
J2VwaWtfcHl0aG9uJywgJy1waHQnLCAnMC4wJywgJy1waCcsICc3LjQnLCAnLXRuJywgJzgnLCAnLW1hJywgJzUwMCcsICctaW1hZScsICc8aW5maWxlLm1hZT4nLCAnLW9tYWUnLCAnPG91dGZpbGUubWFlPic=

> <r_lp_tautomer_probability>
1

> <r_epik_Ionization_Penalty>
  0.0023

> <r_epik_Ionization_Penalty_Charging>
  0.0023

> <r_epik_Ionization_Penalty_Neutral>
  0.0000

> <r_epik_State_Penalty>
 -0.0000

> <r_epik_Charging_Adjusted_Penalty>
0.00233856

> <i_epik_Tot_Q>
1

> <i_epik_Tot_abs_Q>
1

> <s_lp_Force_Field>
S-OPLS

> <r_lp_Energy>
39.4847

> <b_lp_Chiralities_Consistent>
1

> <s_lp_Variant>
lig_CHEMBL1086409-1

> <s_i_glide_gridfile>
glide-grid_EG5-3L9H

> <i_i_glide_lignum>
21

> <i_i_glide_rotatable_bonds>
4

> <r_i_docking_score>
-8.36784834764743

> <r_i_glide_ligand_efficiency>
-0.298851726701694

> <r_i_glide_ligand_efficiency_sa>
-0.907489856520383

> <r_i_glide_ligand_efficiency_ln>
-1.93154508934044

> <r_i_glide_gscore>
-8.36784834764743

> <r_i_glide_lipo>
-4.55781413171902

> <r_i_glide_hbond>
-0.103503880092214

> <r_i_glide_metal>
-0

> <r_i_glide_rewards>
-1.85677901672795

> <r_i_glide_evdw>
-41.599739074707

> <r_i_glide_ecoul>
-1.80024313926697

> <r_i_glide_erotb>
0.500272105517158

> <r_i_glide_esite>
0

> <r_i_glide_emodel>
-64.5760746740241

> <r_i_glide_energy>
-43.399982213974

> <r_i_glide_einternal>
-5.37275042233887e-08

> <i_i_glide_confnum>
8

> <i_i_glide_posenum>
8

> <r_i_glide_eff_state_penalty>
-0

> <r_i_glide_rmsd>
0.0825077174894544

> <s_glide_core_constrain_type>
snapped_core_restrain

$$$$
lig_CHEMBL1077204
                    3D
 Schrodinger Suite 2022-3.
 66 69  0  0  1  0            999 V2000
   34.2562    7.0347   16.2294 H   0  0  0  0  0  0
   33.2821    7.3917   15.9444 C   0  0  0  0  0  0
   33.1297    8.2337   14.8235 C   0  0  0  0  0  0
   33.9842    8.5209   14.2482 H   0  0  0  0  0  0
   31.8444    8.6867   14.4514 C   0  0  0  0  0  0
   31.7395    9.3211   13.5904 H   0  0  0  0  0  0
   30.7018    8.2986   15.1919 C   0  0  0  0  0  0
   29.3349    8.7988   14.7881 C   0  0  2  0  0  0
   28.5933    8.3597   15.4663 H   0  0  0  0  0  0
   29.0070    8.3086   13.4630 N   0  0  0  0  0  0
   29.1574    7.3132   13.3063 H   0  0  0  0  0  0
   27.9809    8.9247   12.7466 C   0  0  0  0  0  0
   27.5853    8.3573   11.5123 C   0  0  0  0  0  0
   28.0389    7.4496   11.1533 H   0  0  0  0  0  0
   26.6000    8.9873   10.7187 C   0  0  0  0  0  0
   26.3248    8.5670    9.7705 H   0  0  0  0  0  0
   25.9930   10.1883   11.1477 C   0  0  0  0  0  0
   25.0012   10.8988   10.2584 C   0  0  0  0  0  0
   25.6629   11.7243    9.4459 F   0  0  0  0  0  0
   24.3362   10.0137    9.5184 F   0  0  0  0  0  0
   24.1223   11.6157   10.9611 F   0  0  0  0  0  0
   26.3740   10.7533   12.3947 C   0  0  0  0  0  0
   25.9525   11.6837   12.7053 H   0  0  0  0  0  0
   27.3631   10.1245   13.1855 C   0  0  0  0  0  0
   27.7950   10.7877   14.4758 C   0  0  1  0  0  0
   27.8062   11.8620   14.2948 H   0  0  0  0  0  0
   26.8832   10.5117   15.5344 O   0  0  0  0  0  0
   27.1477   11.2242   16.7404 C   0  0  1  0  0  0
   27.1850   12.2849   16.4827 H   0  0  0  0  0  0
   25.9308   11.0430   17.6962 C   0  0  0  0  0  0
   25.6144   12.0199   18.0682 H   0  0  0  0  0  0
   25.0712   10.6787   17.1251 H   0  0  0  0  0  0
   26.1520   10.1379   18.8238 N   0  0  0  0  0  0
   25.9448    9.1625   18.6644 H   0  0  0  0  0  0
   26.6750   10.5167   20.0003 C   0  0  0  0  0  0
   26.9446   11.6800   20.2828 O   0  0  0  0  0  0
   26.9084    9.4845   20.8235 N   0  0  0  0  0  0
   26.6390    8.5745   20.4891 H   0  0  0  0  0  0
   27.6747    9.5294   22.0635 C   0  0  0  0  0  0
   28.4015    8.7304   22.0160 H   0  0  0  0  0  0
   28.2478   10.4626   22.1563 H   0  0  0  0  0  0
   26.7887    9.3369   23.3234 C   0  0  0  0  0  0
   26.2421   10.2685   23.5227 H   0  0  0  0  0  0
   26.0295    8.5806   23.0824 H   0  0  0  0  0  0
   27.5544    8.9152   24.5043 N   0  3  0  0  0  0
   28.5187    9.8964   24.9818 C   0  0  0  0  0  0
   28.0296   10.8222   25.3144 H   0  0  0  0  0  0
   29.2668   10.1738   24.2278 H   0  0  0  0  0  0
   29.0853    9.5071   25.8376 H   0  0  0  0  0  0
   26.6934    8.4166   25.5707 C   0  0  0  0  0  0
   26.0653    9.2210   25.9802 H   0  0  0  0  0  0
   27.2755    7.9999   26.3998 H   0  0  0  0  0  0
   26.0212    7.6192   25.2228 H   0  0  0  0  0  0
   28.5220   10.7834   17.2811 C   0  0  0  0  0  0
   28.7797   11.3718   18.1674 H   0  0  0  0  0  0
   28.4929    9.7362   17.5813 H   0  0  0  0  0  0
   29.6196   10.9620   16.2283 C   0  0  0  0  0  0
   29.8012   12.0245   16.0892 H   0  0  0  0  0  0
   30.5566   10.5581   16.6027 H   0  0  0  0  0  0
   29.2135   10.3407   14.8728 C   0  0  1  0  0  0
   29.9015   10.7486   14.1347 H   0  0  0  0  0  0
   30.8528    7.4302   16.2936 C   0  0  0  0  0  0
   29.9916    7.0984   16.8410 H   0  0  0  0  0  0
   32.1393    6.9883   16.6779 C   0  0  0  0  0  0
   32.2482    6.3143   17.5164 H   0  0  0  0  0  0
   28.1027    8.1015   24.1952 H   0  0  0  0  0  0
  1  2  1  0  0  0
  2 64  1  0  0  0
  2  3  2  0  0  0
  3  4  1  0  0  0
  3  5  1  0  0  0
  5  6  1  0  0  0
  5  7  2  0  0  0
  7  8  1  0  0  0
  7 62  1  0  0  0
  8 60  1  0  0  0
  8  9  1  0  0  0
  8 10  1  0  0  0
 10 11  1  0  0  0
 10 12  1  0  0  0
 12 24  1  0  0  0
 12 13  2  0  0  0
 13 14  1  0  0  0
 13 15  1  0  0  0
 15 16  1  0  0  0
 15 17  2  0  0  0
 17 18  1  0  0  0
 17 22  1  0  0  0
 18 19  1  0  0  0
 18 20  1  0  0  0
 18 21  1  0  0  0
 22 23  1  0  0  0
 22 24  2  0  0  0
 24 25  1  0  0  0
 25 60  1  0  0  0
 25 26  1  0  0  0
 25 27  1  0  0  0
 27 28  1  0  0  0
 28 29  1  0  0  0
 28 30  1  0  0  0
 28 54  1  0  0  0
 30 31  1  0  0  0
 30 32  1  0  0  0
 30 33  1  0  0  0
 33 34  1  0  0  0
 33 35  1  0  0  0
 35 36  2  0  0  0
 35 37  1  0  0  0
 37 38  1  0  0  0
 37 39  1  0  0  0
 39 40  1  0  0  0
 39 41  1  0  0  0
 39 42  1  0  0  0
 42 43  1  0  0  0
 42 44  1  0  0  0
 42 45  1  0  0  0
 45 46  1  0  0  0
 45 50  1  0  0  0
 45 66  1  0  0  0
 46 47  1  0  0  0
 46 48  1  0  0  0
 46 49  1  0  0  0
 50 51  1  0  0  0
 50 52  1  0  0  0
 50 53  1  0  0  0
 54 55  1  0  0  0
 54 56  1  0  0  0
 54 57  1  0  0  0
 57 58  1  0  0  0
 57 59  1  0  0  0
 57 60  1  0  0  0
 60 61  1  0  0  0
 62 63  1  0  0  0
 62 64  2  0  0  0
 64 65  1  0  0  0
M  CHG  1  45   1
M  END
> <s_m_source_file>
ligprep_eg5.smi

> <i_m_source_file_index>
1

> <i_lp_mmshare_version>
53161

> <i_f3d_flags>
0

> <s_epik_input>
W2NIXTFbY0hdW2NIXVtjSF1bY0hdYzFbQ0BIXShbTkhdMilbQ0BASF0oW0NASF0zYyhjMjQpW2NIXWMoQyhGKShGKUYpW2NIXVtjSF00KVtDSDJdW0NIMl1bQ0BASF0oTzMpW0NIMl1bTkhdQyg9TylbTkhdW0NIMl1bQ0gyXU4oW0NIM10pW0NIM10=

> <s_epik_cmdline>
J2VwaWtfcHl0aG9uJywgJy1waHQnLCAnMC4wJywgJy1waCcsICc3LjQnLCAnLXRuJywgJzgnLCAnLW1hJywgJzUwMCcsICctaW1hZScsICc8aW5maWxlLm1hZT4nLCAnLW9tYWUnLCAnPG91dGZpbGUubWFlPic=

> <r_lp_tautomer_probability>
1

> <r_epik_Ionization_Penalty>
  0.0082

> <r_epik_Ionization_Penalty_Charging>
  0.0082

> <r_epik_Ionization_Penalty_Neutral>
  0.0000

> <r_epik_State_Penalty>
 -0.0000

> <r_epik_Charging_Adjusted_Penalty>
0.00819794

> <i_epik_Tot_Q>
1

> <i_epik_Tot_abs_Q>
1

> <s_lp_Force_Field>
S-OPLS

> <r_lp_Energy>
45.9171

> <b_lp_Chiralities_Consistent>
1

> <s_lp_Variant>
lig_CHEMBL1077204-1

> <s_i_glide_gridfile>
glide-grid_EG5-3L9H

> <i_i_glide_lignum>
1

> <i_i_glide_rotatable_bonds>
9

> <r_i_docking_score>
-8.36025842742276

> <r_i_glide_ligand_efficiency>
-0.245889953747728

> <r_i_glide_ligand_efficiency_sa>
-0.796587995040363

> <r_i_glide_ligand_efficiency_ln>
-1.84701558392362

> <r_i_glide_gscore>
-8.36025842742276

> <r_i_glide_lipo>
-4.57367673946409

> <r_i_glide_hbond>
-0.151646552204959

> <r_i_glide_metal>
-0

> <r_i_glide_rewards>
-1.23923404152954

> <r_i_glide_evdw>
-51.0351600646973

> <r_i_glide_ecoul>
-4.12482261657715

> <r_i_glide_erotb>
0.799489567595273

> <r_i_glide_esite>
-0.0247092660980082

> <r_i_glide_emodel>
-90.0263182301627

> <r_i_glide_energy>
-55.1599826812744

> <r_i_glide_einternal>
1.91703847463032e-07

> <i_i_glide_confnum>
8

> <i_i_glide_posenum>
10

> <r_i_glide_eff_state_penalty>
-0

> <r_i_glide_rmsd>
0.0763132020169883

> <s_glide_core_constrain_type>
snapped_core_restrain

$$$$
lig_CHEMBL1096003
                    3D
 Schrodinger Suite 2022-3.
 62 65  0  0  1  0            999 V2000
   34.2108    7.0139   16.2401 H   0  0  0  0  0  0
   33.2384    7.3802   15.9455 C   0  0  0  0  0  0
   32.0951    6.9867   16.6600 C   0  0  0  0  0  0
   32.1852    6.3313   17.5158 H   0  0  0  0  0  0
   30.8216    7.4546   16.2761 C   0  0  0  0  0  0
   29.9477    7.1521   16.8340 H   0  0  0  0  0  0
   30.6912    8.3234   15.1729 C   0  0  0  0  0  0
   29.3266    8.8519   14.7633 C   0  0  2  0  0  0
   28.5887    8.4033   15.4297 H   0  0  0  0  0  0
   28.9799    8.3924   13.4251 N   0  0  0  0  0  0
   29.1885    7.4303   13.1973 H   0  0  0  0  0  0
   27.9425    9.0288   12.7277 C   0  0  0  0  0  0
   27.4885    8.4689   11.5200 C   0  0  0  0  0  0
   27.9849    7.2973   11.1235 F   0  0  0  0  0  0
   26.5041    9.0837   10.7395 C   0  0  0  0  0  0
   26.1690    8.6260    9.8203 H   0  0  0  0  0  0
   25.9481   10.2875   11.1918 C   0  0  0  0  0  0
   24.6811   11.0460   10.3189 Cl  0  0  0  0  0  0
   26.3733   10.8611   12.4020 C   0  0  0  0  0  0
   25.9318   11.7926   12.7245 H   0  0  0  0  0  0
   27.3640   10.2330   13.1828 C   0  0  0  0  0  0
   27.8115   10.8673   14.4860 C   0  0  1  0  0  0
   27.8189   11.9494   14.3430 H   0  0  0  0  0  0
   26.8820   10.5414   15.5172 O   0  0  0  0  0  0
   27.1348   11.1765   16.7636 C   0  0  1  0  0  0
   27.1756   12.2540   16.5895 H   0  0  0  0  0  0
   25.9147   10.9027   17.6756 C   0  0  0  0  0  0
   25.5493   11.8416   18.0940 H   0  0  0  0  0  0
   25.0902   10.4808   17.0981 H   0  0  0  0  0  0
   26.2403   10.0153   18.7915 N   0  0  2  0  0  0
   26.9647    9.3341   18.5713 H   0  0  0  0  0  0
   25.0077    9.3764   19.7986 S   0  0  0  0  0  0
   25.6624    8.9726   21.0519 O   0  0  0  0  0  0
   23.8983   10.3422   19.8235 O   0  0  0  0  0  0
   24.4539    7.8667   18.8930 C   0  0  0  0  0  0
   23.7047    8.1813   18.1665 H   0  0  0  0  0  0
   25.3066    7.4701   18.3400 H   0  0  0  0  0  0
   23.9081    6.8181   19.8885 C   0  0  0  0  0  0
   24.7102    6.4972   20.5507 H   0  0  0  0  0  0
   23.1696    7.2858   20.5414 H   0  0  0  0  0  0
   23.2839    5.6191   19.2646 N   0  3  0  0  0  0
   24.1543    4.8819   18.3191 C   0  0  0  0  0  0
   24.3881    5.4812   17.4396 H   0  0  0  0  0  0
   23.6637    3.9677   17.9819 H   0  0  0  0  0  0
   25.0904    4.5869   18.7899 H   0  0  0  0  0  0
   21.9386    5.8918   18.7115 C   0  0  0  0  0  0
   21.9706    6.6453   17.9245 H   0  0  0  0  0  0
   21.2614    6.2410   19.4906 H   0  0  0  0  0  0
   21.5096    4.9883   18.2840 H   0  0  0  0  0  0
   28.5078   10.7000   17.2959 C   0  0  0  0  0  0
   28.7501   11.1998   18.2352 H   0  0  0  0  0  0
   28.4915    9.6290   17.5014 H   0  0  0  0  0  0
   29.6079   10.9729   16.2649 C   0  0  0  0  0  0
   29.7511   12.0515   16.1753 H   0  0  0  0  0  0
   30.5578   10.5741   16.6208 H   0  0  0  0  0  0
   29.2267   10.3965   14.8829 C   0  0  1  0  0  0
   29.9279   10.8179   14.1595 H   0  0  0  0  0  0
   31.8413    8.6933   14.4440 C   0  0  0  0  0  0
   31.7524    9.3424   13.5872 H   0  0  0  0  0  0
   33.1101    8.2214   14.8259 C   0  0  0  0  0  0
   33.9852    8.5082   14.2609 H   0  0  0  0  0  0
   23.1301    4.9718   20.0285 H   0  0  0  0  0  0
  1  2  1  0  0  0
  2 60  1  0  0  0
  2  3  2  0  0  0
  3  4  1  0  0  0
  3  5  1  0  0  0
  5  6  1  0  0  0
  5  7  2  0  0  0
  7  8  1  0  0  0
  7 58  1  0  0  0
  8 56  1  0  0  0
  8  9  1  0  0  0
  8 10  1  0  0  0
 10 11  1  0  0  0
 10 12  1  0  0  0
 12 21  1  0  0  0
 12 13  2  0  0  0
 13 14  1  0  0  0
 13 15  1  0  0  0
 15 16  1  0  0  0
 15 17  2  0  0  0
 17 18  1  0  0  0
 17 19  1  0  0  0
 19 20  1  0  0  0
 19 21  2  0  0  0
 21 22  1  0  0  0
 22 56  1  0  0  0
 22 23  1  0  0  0
 22 24  1  0  0  0
 24 25  1  0  0  0
 25 26  1  0  0  0
 25 27  1  0  0  0
 25 50  1  0  0  0
 27 28  1  0  0  0
 27 29  1  0  0  0
 27 30  1  0  0  0
 30 31  1  0  0  0
 30 32  1  0  0  0
 32 33  2  0  0  0
 32 34  2  0  0  0
 32 35  1  0  0  0
 35 36  1  0  0  0
 35 37  1  0  0  0
 35 38  1  0  0  0
 38 39  1  0  0  0
 38 40  1  0  0  0
 38 41  1  0  0  0
 41 42  1  0  0  0
 41 46  1  0  0  0
 41 62  1  0  0  0
 42 43  1  0  0  0
 42 44  1  0  0  0
 42 45  1  0  0  0
 46 47  1  0  0  0
 46 48  1  0  0  0
 46 49  1  0  0  0
 50 51  1  0  0  0
 50 52  1  0  0  0
 50 53  1  0  0  0
 53 54  1  0  0  0
 53 55  1  0  0  0
 53 56  1  0  0  0
 56 57  1  0  0  0
 58 59  1  0  0  0
 58 60  2  0  0  0
 60 61  1  0  0  0
M  CHG  1  41   1
M  END
> <s_m_source_file>
ligprep_eg5.smi

> <i_m_source_file_index>
28

> <i_lp_mmshare_version>
53161

> <i_f3d_flags>
0

> <s_epik_input>
RmMxW2NIXWMoQ2wpW2NIXWMoYzEyKVtDQEBIXTNbQ0BIXShbQ0BASF0oW05IXTIpYzRbY0hdW2NIXVtjSF1bY0hdW2NIXTQpW0NIMl1bQ0gyXVtDQEBIXShPMylbQ0gyXVtOSF1TKD1PKSg9TylbQ0gyXVtDSDJdTihbQ0gzXSlbQ0gzXQ==

> <s_epik_cmdline>
J2VwaWtfcHl0aG9uJywgJy1waHQnLCAnMC4wJywgJy1waCcsICc3LjQnLCAnLXRuJywgJzgnLCAnLW1hJywgJzUwMCcsICctaW1hZScsICc8aW5maWxlLm1hZT4nLCAnLW9tYWUnLCAnPG91dGZpbGUubWFlPic=

> <r_epik_Ionization_Penalty>
  0.1090

> <r_epik_Ionization_Penalty_Charging>
  0.1079

> <r_epik_Ionization_Penalty_Neutral>
  0.0011

> <r_epik_State_Penalty>
  0.0977

> <r_epik_Charging_Adjusted_Penalty>
0.205654

> <i_epik_Tot_Q>
1

> <i_epik_Tot_abs_Q>
1

> <s_lp_Force_Field>
S-OPLS

> <r_lp_Energy>
46.8483

> <b_lp_Chiralities_Consistent>
1

> <s_lp_Variant>
lig_CHEMBL1096003-1

> <s_i_glide_gridfile>
glide-grid_EG5-3L9H

> <i_i_glide_lignum>
29

> <i_i_glide_rotatable_bonds>
7

> <r_i_docking_score>
-8.27683950692293

> <r_i_glide_ligand_efficiency>
-0.258651234591341

> <r_i_glide_ligand_efficiency_sa>
-0.821166482817689

> <r_i_glide_ligand_efficiency_ln>
-1.85340998372382

> <r_i_glide_gscore>
-8.37453950692293

> <r_i_glide_lipo>
-4.5888972771767

> <r_i_glide_hbond>
-0.0301411715814408

> <r_i_glide_metal>
-0

> <r_i_glide_rewards>
-0.54412124830054

> <r_i_glide_evdw>
-49.2485656738281

> <r_i_glide_ecoul>
-8.29037380218506

> <r_i_glide_erotb>
0.521998501557491

> <r_i_glide_esite>
-0.0273939574025725

> <r_i_glide_emodel>
-88.89523856264

> <r_i_glide_energy>
-57.5389394760132

> <r_i_glide_einternal>
5.58035564422607

> <i_i_glide_confnum>
7

> <i_i_glide_posenum>
62

> <r_i_glide_eff_state_penalty>
0.0977

> <r_i_glide_rmsd>
0.0919035435540691

> <s_glide_core_constrain_type>
snapped_core_restrain

$$$$
lig_CHEMBL1093087
                    3D
 Schrodinger Suite 2022-3.
 66 70  0  0  1  0            999 V2000
   23.1299    5.7633   18.3178 H   0  0  0  0  0  0
   23.7562    6.6395   18.4185 C   0  0  0  0  0  0
   24.3847    7.1950   17.2909 C   0  0  0  0  0  0
   24.2947    6.7498   16.3118 H   0  0  0  0  0  0
   25.2219    8.3094   17.4269 C   0  0  0  0  0  0
   25.7142    8.6724   16.5394 H   0  0  0  0  0  0
   25.4337    8.9223   18.6811 C   0  0  0  0  0  0
   26.2670   10.0659   18.7635 N   0  0  0  0  0  0
   26.5913   10.5374   20.1134 C   0  0  0  0  0  0
   25.6767   10.9505   20.5373 H   0  0  0  0  0  0
   26.8614    9.6757   20.7235 H   0  0  0  0  0  0
   27.7162   11.5690   20.2663 C   0  0  0  0  0  0
   28.6780   11.1135   20.0388 H   0  0  0  0  0  0
   27.5734   12.4324   19.6125 H   0  0  0  0  0  0
   27.7988   12.0569   21.6550 N   0  3  0  0  0  0
   28.5622   12.7127   21.7447 H   0  0  0  0  0  0
   27.9545   11.2778   22.2845 H   0  0  0  0  0  0
   26.0253   11.0368   17.6907 C   0  0  0  0  0  0
   25.0942   10.8522   17.1567 H   0  0  0  0  0  0
   25.8552   12.0041   18.1629 H   0  0  0  0  0  0
   27.1920   11.2093   16.6719 C   0  0  2  0  0  0
   27.2111   12.2676   16.4043 H   0  0  0  0  0  0
   26.8998   10.4907   15.4797 O   0  0  0  0  0  0
   27.8051   10.7560   14.4114 C   0  0  2  0  0  0
   27.8141   11.8342   14.2280 H   0  0  0  0  0  0
   27.3579   10.0864   13.1318 C   0  0  0  0  0  0
   26.3599   10.7094   12.3608 C   0  0  0  0  0  0
   25.9129   11.6285   12.7095 H   0  0  0  0  0  0
   25.9873   10.1746   11.1160 C   0  0  0  0  0  0
   24.9793   10.8912   10.2387 C   0  0  0  0  0  0
   24.2941   10.0045    9.5194 F   0  0  0  0  0  0
   24.1227   11.6143   10.9588 F   0  0  0  0  0  0
   25.6354   11.7052    9.4156 F   0  0  0  0  0  0
   26.5985    8.9885   10.6676 C   0  0  0  0  0  0
   26.3225    8.5699    9.7112 H   0  0  0  0  0  0
   27.5827    8.3477   11.4429 C   0  0  0  0  0  0
   28.0368    7.4388   11.0818 H   0  0  0  0  0  0
   27.9758    8.8942   12.6779 C   0  0  0  0  0  0
   28.9890    8.2540   13.4063 N   0  0  0  0  0  0
   29.1781    7.2760   13.2370 H   0  0  0  0  0  0
   29.3301    8.7599   14.7288 C   0  0  1  0  0  0
   28.5956    8.3465   15.4225 H   0  0  0  0  0  0
   30.7004    8.2567   15.1554 C   0  0  0  0  0  0
   30.8428    7.4097   16.2730 C   0  0  0  0  0  0
   29.9724    7.0898   16.8234 H   0  0  0  0  0  0
   32.1238    6.9850   16.6788 C   0  0  0  0  0  0
   32.2252    6.3393   17.5405 H   0  0  0  0  0  0
   33.2631    7.3919   15.9618 C   0  0  0  0  0  0
   34.2447    7.0644   16.2752 H   0  0  0  0  0  0
   33.1210    8.2084   14.8274 C   0  0  0  0  0  0
   33.9895    8.5124   14.2643 H   0  0  0  0  0  0
   31.8460    8.6453   14.4287 C   0  0  0  0  0  0
   31.7433    9.2753   13.5607 H   0  0  0  0  0  0
   29.2287   10.3060   14.7795 C   0  0  2  0  0  0
   29.9006   10.6920   14.0120 H   0  0  0  0  0  0
   29.6574   10.9603   16.0973 C   0  0  0  0  0  0
   30.6088   10.5650   16.4547 H   0  0  0  0  0  0
   29.8251   12.0248   15.9176 H   0  0  0  0  0  0
   28.5923   10.8030   17.1696 C   0  0  0  0  0  0
   28.9012   11.4446   17.9820 H   0  0  0  0  0  0
   28.5954    9.7729   17.5282 H   0  0  0  0  0  0
   24.7771    8.3618   19.8117 C   0  0  0  0  0  0
   24.8828    8.7758   20.8029 H   0  0  0  0  0  0
   23.9563    7.2256   19.6793 C   0  0  0  0  0  0
   23.4767    6.7957   20.5493 H   0  0  0  0  0  0
   26.9372   12.5186   21.9048 H   0  0  0  0  0  0
  1  2  1  0  0  0
  2 64  1  0  0  0
  2  3  2  0  0  0
  3  4  1  0  0  0
  3  5  1  0  0  0
  5  6  1  0  0  0
  5  7  2  0  0  0
  7  8  1  0  0  0
  7 62  1  0  0  0
  8  9  1  0  0  0
  8 18  1  0  0  0
  9 10  1  0  0  0
  9 11  1  0  0  0
  9 12  1  0  0  0
 12 13  1  0  0  0
 12 14  1  0  0  0
 12 15  1  0  0  0
 15 16  1  0  0  0
 15 17  1  0  0  0
 15 66  1  0  0  0
 18 19  1  0  0  0
 18 20  1  0  0  0
 18 21  1  0  0  0
 21 59  1  0  0  0
 21 22  1  0  0  0
 21 23  1  0  0  0
 23 24  1  0  0  0
 24 54  1  0  0  0
 24 25  1  0  0  0
 24 26  1  0  0  0
 26 38  1  0  0  0
 26 27  2  0  0  0
 27 28  1  0  0  0
 27 29  1  0  0  0
 29 30  1  0  0  0
 29 34  2  0  0  0
 30 31  1  0  0  0
 30 32  1  0  0  0
 30 33  1  0  0  0
 34 35  1  0  0  0
 34 36  1  0  0  0
 36 37  1  0  0  0
 36 38  2  0  0  0
 38 39  1  0  0  0
 39 40  1  0  0  0
 39 41  1  0  0  0
 41 42  1  0  0  0
 41 43  1  0  0  0
 41 54  1  0  0  0
 43 52  1  0  0  0
 43 44  2  0  0  0
 44 45  1  0  0  0
 44 46  1  0  0  0
 46 47  1  0  0  0
 46 48  2  0  0  0
 48 49  1  0  0  0
 48 50  1  0  0  0
 50 51  1  0  0  0
 50 52  2  0  0  0
 52 53  1  0  0  0
 54 55  1  0  0  0
 54 56  1  0  0  0
 56 57  1  0  0  0
 56 58  1  0  0  0
 56 59  1  0  0  0
 59 60  1  0  0  0
 59 61  1  0  0  0
 62 63  1  0  0  0
 62 64  2  0  0  0
 64 65  1  0  0  0
M  CHG  1  15   1
M  END
> <s_m_source_file>
ligprep_eg5.smi

> <i_m_source_file_index>
25

> <i_lp_mmshare_version>
53161

> <i_f3d_flags>
0

> <s_epik_input>
W2NIXTFbY0hdW2NIXVtjSF1bY0hdYzFOKFtDSDJdW0NIMl1bTkgyXSlbQ0gyXVtDQEhdKE8yKVtDSDJdW0NIMl1bQ0BIXTNbQ0BASF0oW05IXWMoYzRbQ0BASF0yMylbY0hdW2NIXWMoW2NIXTQpQyhGKShGKUYpYzVbY0hdW2NIXVtjSF1bY0hdW2NIXTU=

> <s_epik_cmdline>
J2VwaWtfcHl0aG9uJywgJy1waHQnLCAnMC4wJywgJy1waCcsICc3LjQnLCAnLXRuJywgJzgnLCAnLW1hJywgJzUwMCcsICctaW1hZScsICc8aW5maWxlLm1hZT4nLCAnLW9tYWUnLCAnPG91dGZpbGUubWFlPic=

> <r_lp_tautomer_probability>
1

> <r_epik_Ionization_Penalty>
  0.0028

> <r_epik_Ionization_Penalty_Charging>
  0.0028

> <r_epik_Ionization_Penalty_Neutral>
  0.0000

> <r_epik_State_Penalty>
 -0.0000

> <r_epik_Charging_Adjusted_Penalty>
0.00279424

> <i_epik_Tot_Q>
1

> <i_epik_Tot_abs_Q>
1

> <s_lp_Force_Field>
S-OPLS

> <r_lp_Energy>
58.0699

> <b_lp_Chiralities_Consistent>
1

> <s_lp_Variant>
lig_CHEMBL1093087-1

> <s_i_glide_gridfile>
glide-grid_EG5-3L9H

> <i_i_glide_lignum>
26

> <i_i_glide_rotatable_bonds>
7

> <r_i_docking_score>
-8.24502956920352

> <r_i_glide_ligand_efficiency>
-0.235572273405815

> <r_i_glide_ligand_efficiency_sa>
-0.770572526239078

> <r_i_glide_ligand_efficiency_ln>
-1.8099669790123

> <r_i_glide_gscore>
-8.24502956920352

> <r_i_glide_lipo>
-4.67177854739875

> <r_i_glide_hbond>
-0.152309090065506

> <r_i_glide_metal>
-0

> <r_i_glide_rewards>
-1.07138690296262

> <r_i_glide_evdw>
-50.5483741760254

> <r_i_glide_ecoul>
-2.88129806518555

> <r_i_glide_erotb>
0.610058389802459

> <r_i_glide_esite>
0

> <r_i_glide_emodel>
-71.0152457922421

> <r_i_glide_energy>
-53.4296722412109

> <r_i_glide_einternal>
1.30132699012756

> <i_i_glide_confnum>
41

> <i_i_glide_posenum>
3

> <r_i_glide_eff_state_penalty>
-0

> <r_i_glide_rmsd>
0.0842399486295152

> <s_glide_core_constrain_type>
snapped_core_restrain

$$$$
lig_CHEMBL1083836
                    3D
 Schrodinger Suite 2022-3.
 55 59  0  0  1  0            999 V2000
   34.2956    7.0491   16.2082 H   0  0  0  0  0  0
   33.3067    7.3881   15.9302 C   0  0  0  0  0  0
   33.1374    8.2287   14.8140 C   0  0  0  0  0  0
   33.9858    8.5407   14.2291 H   0  0  0  0  0  0
   31.8538    8.6740   14.4594 C   0  0  0  0  0  0
   31.7350    9.3219   13.6023 H   0  0  0  0  0  0
   30.7280    8.2799   15.2118 C   0  0  0  0  0  0
   29.3511    8.7830   14.8242 C   0  0  2  0  0  0
   28.6310    8.3616   15.5262 H   0  0  0  0  0  0
   28.9935    8.2742   13.5067 N   0  0  0  0  0  0
   29.1785    7.2947   13.3270 H   0  0  0  0  0  0
   28.0012    8.9258   12.7619 C   0  0  0  0  0  0
   27.6144    8.3685   11.5283 C   0  0  0  0  0  0
   28.0387    7.4360   11.1887 H   0  0  0  0  0  0
   26.6762    9.0305   10.7188 C   0  0  0  0  0  0
   26.3849    8.5957    9.7731 H   0  0  0  0  0  0
   26.1232   10.2625   11.1242 C   0  0  0  0  0  0
   25.1513   10.9601   10.2335 C   0  0  0  0  0  0
   25.6318   11.3327    9.3304 H   0  0  0  0  0  0
   23.8207   10.3233   10.1118 C   0  0  0  0  0  0
   23.4190   10.1890    9.1189 H   0  0  0  0  0  0
   23.6510    9.4959   10.7837 H   0  0  0  0  0  0
   23.9275   11.6953   10.7363 C   0  0  0  0  0  0
   23.7742   11.7751   11.8086 H   0  0  0  0  0  0
   23.5474   12.5284   10.1533 H   0  0  0  0  0  0
   26.4776   10.7980   12.3747 C   0  0  0  0  0  0
   26.0487   11.7348   12.6988 H   0  0  0  0  0  0
   27.4177   10.1422   13.1923 C   0  0  0  0  0  0
   27.8431   10.7906   14.4963 C   0  0  1  0  0  0
   27.8564   11.8698   14.3283 H   0  0  0  0  0  0
   26.9222   10.4980   15.5507 O   0  0  0  0  0  0
   27.1904   11.2175   16.7494 C   0  0  1  0  0  0
   27.2389   12.2749   16.4841 H   0  0  0  0  0  0
   25.9869   11.0644   17.7134 C   0  0  0  0  0  0
   25.0929   10.8369   17.1284 H   0  0  0  0  0  0
   25.7826   12.0160   18.2031 H   0  0  0  0  0  0
   26.1417   10.0156   18.7502 N   0  3  0  0  0  0
   26.7475    9.2923   18.3874 H   0  0  0  0  0  0
   26.6265   10.4800   20.0660 C   0  0  0  0  0  0
   26.6984    9.6369   20.7550 H   0  0  0  0  0  0
   25.9341   11.2078   20.4921 H   0  0  0  0  0  0
   27.6096   10.9451   19.9934 H   0  0  0  0  0  0
   28.5697   10.7835   17.2954 C   0  0  0  0  0  0
   28.8336   11.3707   18.1737 H   0  0  0  0  0  0
   28.5516    9.7368   17.6008 H   0  0  0  0  0  0
   29.6604   10.9670   16.2362 C   0  0  0  0  0  0
   29.8229   12.0353   16.0845 H   0  0  0  0  0  0
   30.6070   10.5709   16.6014 H   0  0  0  0  0  0
   29.2572   10.3308   14.8898 C   0  0  1  0  0  0
   29.9452   10.7276   14.1413 H   0  0  0  0  0  0
   30.8942    7.4141   16.3116 C   0  0  0  0  0  0
   30.0373    7.0837   16.8804 H   0  0  0  0  0  0
   32.1832    6.9779   16.6722 C   0  0  0  0  0  0
   32.3101    6.3172   17.5190 H   0  0  0  0  0  0
   25.2315    9.5998   18.8950 H   0  0  0  0  0  0
  1  2  1  0  0  0
  2 53  1  0  0  0
  2  3  2  0  0  0
  3  4  1  0  0  0
  3  5  1  0  0  0
  5  6  1  0  0  0
  5  7  2  0  0  0
  7  8  1  0  0  0
  7 51  1  0  0  0
  8 49  1  0  0  0
  8  9  1  0  0  0
  8 10  1  0  0  0
 10 11  1  0  0  0
 10 12  1  0  0  0
 12 28  1  0  0  0
 12 13  2  0  0  0
 13 14  1  0  0  0
 13 15  1  0  0  0
 15 16  1  0  0  0
 15 17  2  0  0  0
 17 18  1  0  0  0
 17 26  1  0  0  0
 18 23  1  0  0  0
 18 19  1  0  0  0
 18 20  1  0  0  0
 20 21  1  0  0  0
 20 22  1  0  0  0
 20 23  1  0  0  0
 23 24  1  0  0  0
 23 25  1  0  0  0
 26 27  1  0  0  0
 26 28  2  0  0  0
 28 29  1  0  0  0
 29 49  1  0  0  0
 29 30  1  0  0  0
 29 31  1  0  0  0
 31 32  1  0  0  0
 32 33  1  0  0  0
 32 34  1  0  0  0
 32 43  1  0  0  0
 34 35  1  0  0  0
 34 36  1  0  0  0
 34 37  1  0  0  0
 37 38  1  0  0  0
 37 39  1  0  0  0
 37 55  1  0  0  0
 39 40  1  0  0  0
 39 41  1  0  0  0
 39 42  1  0  0  0
 43 44  1  0  0  0
 43 45  1  0  0  0
 43 46  1  0  0  0
 46 47  1  0  0  0
 46 48  1  0  0  0
 46 49  1  0  0  0
 49 50  1  0  0  0
 51 52  1  0  0  0
 51 53  2  0  0  0
 53 54  1  0  0  0
M  CHG  1  37   1
M  END
> <s_m_source_file>
ligprep_eg5.smi

> <i_m_source_file_index>
9

> <i_lp_mmshare_version>
53161

> <i_f3d_flags>
0

> <s_epik_input>
W2NIXTFbY0hdW2NIXVtjSF1bY0hdYzFbQ0BIXShbTkhdMilbQ0BIXShbQ0gyXVtDSDJdW0NAQEhdKE8zKVtDSDJdW05IXVtDSDNdKVtDQEhdM2MoYzI0KVtjSF1jKFtjSF1bY0hdNClbQ0hdNVtDSDJdW0NIMl01

> <s_epik_cmdline>
J2VwaWtfcHl0aG9uJywgJy1waHQnLCAnMC4wJywgJy1waCcsICc3LjQnLCAnLXRuJywgJzgnLCAnLW1hJywgJzUwMCcsICctaW1hZScsICc8aW5maWxlLm1hZT4nLCAnLW9tYWUnLCAnPG91dGZpbGUubWFlPic=

> <r_lp_tautomer_probability>
1

> <r_epik_Ionization_Penalty>
  0.0027

> <r_epik_Ionization_Penalty_Charging>
  0.0023

> <r_epik_Ionization_Penalty_Neutral>
  0.0004

> <r_epik_State_Penalty>
 -0.0000

> <r_epik_Charging_Adjusted_Penalty>
0.00233856

> <i_epik_Tot_Q>
1

> <i_epik_Tot_abs_Q>
1

> <s_lp_Force_Field>
S-OPLS

> <r_lp_Energy>
43.0329

> <b_lp_Chiralities_Consistent>
1

> <s_lp_Variant>
lig_CHEMBL1083836-1

> <s_i_glide_gridfile>
glide-grid_EG5-3L9H

> <i_i_glide_lignum>
9

> <i_i_glide_rotatable_bonds>
4

> <r_i_docking_score>
-8.11821399640001

> <r_i_glide_ligand_efficiency>
-0.312238999861539

> <r_i_glide_ligand_efficiency_sa>
-0.925006808488672

> <r_i_glide_ligand_efficiency_ln>
-1.90653591902173

> <r_i_glide_gscore>
-8.11821399640001

> <r_i_glide_lipo>
-4.9859128801992

> <r_i_glide_hbond>
-0.163850739216988

> <r_i_glide_metal>
-0

> <r_i_glide_rewards>
-1.12670252259112

> <r_i_glide_evdw>
-40.803352355957

> <r_i_glide_ecoul>
-2.83613419532776

> <r_i_glide_erotb>
0.623839892704311

> <r_i_glide_esite>
0

> <r_i_glide_emodel>
-60.2541375122534

> <r_i_glide_energy>
-43.6394865512848

> <r_i_glide_einternal>
0.242533147335052

> <i_i_glide_confnum>
5

> <i_i_glide_posenum>
2

> <r_i_glide_eff_state_penalty>
-0

> <r_i_glide_rmsd>
0.0861842314775095

> <s_glide_core_constrain_type>
snapped_core_restrain

$$$$
lig_CHEMBL1077227
                    3D
 Schrodinger Suite 2022-3.
 57 60  0  0  1  0            999 V2000
   33.2036    6.3232   16.8098 H   0  0  0  0  0  0
   32.6142    6.9890   16.1935 C   0  0  0  0  0  0
   33.0383    7.8715   15.2366 C   0  0  0  0  0  0
   34.0656    8.0294   14.9506 H   0  0  0  0  0  0
   31.9591    8.5929   14.6434 C   0  0  0  0  0  0
   32.1147    9.3396   13.8769 H   0  0  0  0  0  0
   30.7328    8.2488   15.1532 C   0  0  0  0  0  0
   29.3857    8.7765   14.8007 C   0  0  2  0  0  0
   28.6544    8.3264   15.4743 H   0  0  0  0  0  0
   29.0514    8.3019   13.4693 N   0  0  0  0  0  0
   29.2210    7.3198   13.2837 H   0  0  0  0  0  0
   28.0260    8.9310   12.7612 C   0  0  0  0  0  0
   27.6533    8.3886   11.5188 C   0  0  0  0  0  0
   28.1393    7.5042   11.1378 H   0  0  0  0  0  0
   26.6620    9.0114   10.7514 C   0  0  0  0  0  0
   26.4358    8.5890    9.7861 H   0  0  0  0  0  0
   26.0083   10.1779   11.2159 C   0  0  0  0  0  0
   24.9806   10.8710   10.3106 C   0  0  0  0  0  0
   25.7723   11.6568    9.2605 C   0  0  0  0  0  0
   25.1858   12.2085    8.5367 H   0  0  0  0  0  0
   26.4098   10.9734    8.7186 H   0  0  0  0  0  0
   26.3858   12.4039    9.7555 H   0  0  0  0  0  0
   24.0968   11.8370   11.0951 C   0  0  0  0  0  0
   24.7333   12.5902   11.5213 H   0  0  0  0  0  0
   23.5852   11.3775   11.9327 H   0  0  0  0  0  0
   23.3524   12.3267   10.4644 H   0  0  0  0  0  0
   24.0389    9.8314    9.6914 C   0  0  0  0  0  0
   23.1929   10.2009    9.1191 H   0  0  0  0  0  0
   23.5859    9.3883   10.5558 H   0  0  0  0  0  0
   24.5194    9.0588    9.0932 H   0  0  0  0  0  0
   26.3817   10.7078   12.4767 C   0  0  0  0  0  0
   25.9403   11.6064   12.8752 H   0  0  0  0  0  0
   27.3936   10.1032   13.2413 C   0  0  0  0  0  0
   27.8318   10.7656   14.5376 C   0  0  1  0  0  0
   27.8428   11.8432   14.3620 H   0  0  0  0  0  0
   26.9039   10.4942   15.5908 O   0  0  0  0  0  0
   27.1807   11.1820   16.8101 C   0  0  1  0  0  0
   27.2456   12.2458   16.5739 H   0  0  0  0  0  0
   25.9802   11.0033   17.7814 C   0  0  0  0  0  0
   25.6844   11.9747   18.1781 H   0  0  0  0  0  0
   25.1194   10.6530   17.2065 H   0  0  0  0  0  0
   26.2337   10.1012   18.9492 N   0  3  0  0  0  0
   26.8893    9.4063   18.6222 H   0  0  0  0  0  0
   25.0333    9.3415   19.3545 C   0  0  0  0  0  0
   25.2744    8.6673   20.1774 H   0  0  0  0  0  0
   24.6508    8.7399   18.5282 H   0  0  0  0  0  0
   24.2433   10.0163   19.6873 H   0  0  0  0  0  0
   28.5468   10.7094   17.3415 C   0  0  0  0  0  0
   28.8046   11.2432   18.2565 H   0  0  0  0  0  0
   28.5049    9.6494   17.5916 H   0  0  0  0  0  0
   29.6476   10.9161   16.2956 C   0  0  0  0  0  0
   29.8185   11.9872   16.1725 H   0  0  0  0  0  0
   30.5873   10.5006   16.6545 H   0  0  0  0  0  0
   29.2537   10.3147   14.9282 C   0  0  1  0  0  0
   29.9422   10.7405   14.1941 H   0  0  0  0  0  0
   30.8818    6.9880   16.3306 S   0  0  0  0  0  0
   26.6278   10.4979   19.8995 H   0  0  0  0  0  0
  1  2  1  0  0  0
  2 56  1  0  0  0
  2  3  2  0  0  0
  3  4  1  0  0  0
  3  5  1  0  0  0
  5  6  1  0  0  0
  5  7  2  0  0  0
  7  8  1  0  0  0
  7 56  1  0  0  0
  8 54  1  0  0  0
  8  9  1  0  0  0
  8 10  1  0  0  0
 10 11  1  0  0  0
 10 12  1  0  0  0
 12 33  1  0  0  0
 12 13  2  0  0  0
 13 14  1  0  0  0
 13 15  1  0  0  0
 15 16  1  0  0  0
 15 17  2  0  0  0
 17 18  1  0  0  0
 17 31  1  0  0  0
 18 19  1  0  0  0
 18 23  1  0  0  0
 18 27  1  0  0  0
 19 20  1  0  0  0
 19 21  1  0  0  0
 19 22  1  0  0  0
 23 24  1  0  0  0
 23 25  1  0  0  0
 23 26  1  0  0  0
 27 28  1  0  0  0
 27 29  1  0  0  0
 27 30  1  0  0  0
 31 32  1  0  0  0
 31 33  2  0  0  0
 33 34  1  0  0  0
 34 54  1  0  0  0
 34 35  1  0  0  0
 34 36  1  0  0  0
 36 37  1  0  0  0
 37 38  1  0  0  0
 37 39  1  0  0  0
 37 48  1  0  0  0
 39 40  1  0  0  0
 39 41  1  0  0  0
 39 42  1  0  0  0
 42 43  1  0  0  0
 42 44  1  0  0  0
 42 57  1  0  0  0
 44 45  1  0  0  0
 44 46  1  0  0  0
 44 47  1  0  0  0
 48 49  1  0  0  0
 48 50  1  0  0  0
 48 51  1  0  0  0
 51 52  1  0  0  0
 51 53  1  0  0  0
 51 54  1  0  0  0
 54 55  1  0  0  0
M  CHG  1  42   1
M  END
> <s_m_source_file>
ligprep_eg5.smi

> <i_m_source_file_index>
2

> <i_lp_mmshare_version>
53161

> <i_f3d_flags>
0

> <s_epik_input>
W0NIM11bTkhdW0NIMl1bQ0BIXShPMSlbQ0gyXVtDSDJdW0NAQEhdKFtDQEBIXShbTkhdMiljM1tjSF1bY0hdW2NIXXMzKVtDQEhdMWMoYzI0KVtjSF1jKFtjSF1bY0hdNClDKFtDSDNdKShbQ0gzXSlbQ0gzXQ==

> <s_epik_cmdline>
J2VwaWtfcHl0aG9uJywgJy1waHQnLCAnMC4wJywgJy1waCcsICc3LjQnLCAnLXRuJywgJzgnLCAnLW1hJywgJzUwMCcsICctaW1hZScsICc8aW5maWxlLm1hZT4nLCAnLW9tYWUnLCAnPG91dGZpbGUubWFlPic=

> <r_lp_tautomer_probability>
1

> <r_epik_Ionization_Penalty>
  0.0026

> <r_epik_Ionization_Penalty_Charging>
  0.0023

> <r_epik_Ionization_Penalty_Neutral>
  0.0002

> <r_epik_State_Penalty>
 -0.0000

> <r_epik_Charging_Adjusted_Penalty>
0.00234437

> <i_epik_Tot_Q>
1

> <i_epik_Tot_abs_Q>
1

> <s_lp_Force_Field>
S-OPLS

> <r_lp_Energy>
35.8987

> <b_lp_Chiralities_Consistent>
1

> <s_lp_Variant>
lig_CHEMBL1077227-1

> <s_i_glide_gridfile>
glide-grid_EG5-3L9H

> <i_i_glide_lignum>
2

> <i_i_glide_rotatable_bonds>
4

> <r_i_docking_score>
-7.933869842524

> <r_i_glide_ligand_efficiency>
-0.305148840097077

> <r_i_glide_ligand_efficiency_sa>
-0.904002238084884

> <r_i_glide_ligand_efficiency_ln>
-1.86324329936645

> <r_i_glide_gscore>
-7.933869842524

> <r_i_glide_lipo>
-4.78353947845621

> <r_i_glide_hbond>
-0.128973420991137

> <r_i_glide_metal>
-0

> <r_i_glide_rewards>
-1.03980574115753

> <r_i_glide_evdw>
-43.0146675109863

> <r_i_glide_ecoul>
-2.60091114044189

> <r_i_glide_erotb>
0.559318844696476

> <r_i_glide_esite>
0

> <r_i_glide_emodel>
-55.2445904462782

> <r_i_glide_energy>
-45.6155786514282

> <r_i_glide_einternal>
2.06124687194824

> <i_i_glide_confnum>
38

> <i_i_glide_posenum>
37

> <r_i_glide_eff_state_penalty>
-0

> <r_i_glide_rmsd>
0.106644903951531

> <s_glide_core_constrain_type>
snapped_core_restrain

$$$$
lig_CHEMBL1085692
                    3D
 Schrodinger Suite 2022-3.
 64 67  0  0  1  0            999 V2000
   34.2542    7.0460   16.2347 H   0  0  0  0  0  0
   33.2731    7.3883   15.9413 C   0  0  0  0  0  0
   32.1391    6.9883   16.6737 C   0  0  0  0  0  0
   32.2530    6.3417   17.5322 H   0  0  0  0  0  0
   30.8552    7.4280   16.2941 C   0  0  0  0  0  0
   29.9909    7.1230   16.8633 H   0  0  0  0  0  0
   30.7055    8.2812   15.1809 C   0  0  0  0  0  0
   29.3355    8.8047   14.7912 C   0  0  2  0  0  0
   28.6052    8.3747   15.4764 H   0  0  0  0  0  0
   28.9759    8.3401   13.4575 N   0  0  0  0  0  0
   29.1708    7.3698   13.2383 H   0  0  0  0  0  0
   27.9461    8.9883   12.7575 C   0  0  0  0  0  0
   27.4915    8.4449   11.5404 C   0  0  0  0  0  0
   27.9850    7.2801   11.1189 F   0  0  0  0  0  0
   26.5200    9.0831   10.7598 C   0  0  0  0  0  0
   26.1956    8.6573    9.8227 H   0  0  0  0  0  0
   25.9960   10.2926   11.2170 C   0  0  0  0  0  0
   24.7848   11.2873   10.1865 Br  0  0  0  0  0  0
   26.3977   10.8361   12.4476 C   0  0  0  0  0  0
   25.9875   11.7871   12.7662 H   0  0  0  0  0  0
   27.3739   10.1890   13.2224 C   0  0  0  0  0  0
   27.8460   10.8408   14.5042 C   0  0  1  0  0  0
   27.8814   11.9179   14.3316 H   0  0  0  0  0  0
   26.9142   10.5734   15.5487 O   0  0  0  0  0  0
   27.1946   11.2571   16.7623 C   0  0  1  0  0  0
   27.2815   12.3238   16.5404 H   0  0  0  0  0  0
   25.9633   11.0805   17.6864 C   0  0  0  0  0  0
   25.6710   12.0572   18.0766 H   0  0  0  0  0  0
   25.1038   10.7353   17.1107 H   0  0  0  0  0  0
   26.1834   10.1607   18.7918 N   0  0  0  0  0  0
   26.0985    9.1797   18.5751 H   0  0  0  0  0  0
   26.5446   10.5128   20.0359 C   0  0  0  0  0  0
   26.7352   11.6835   20.3848 O   0  0  0  0  0  0
   26.8164    9.3505   20.9951 C   0  0  0  0  0  0
   27.5182    8.6798   20.5018 H   0  0  0  0  0  0
   27.3455    9.7432   21.8637 H   0  0  0  0  0  0
   25.5749    8.5551   21.4820 C   0  0  0  0  0  0
   25.9435    7.7800   22.1556 H   0  0  0  0  0  0
   24.9469    9.2037   22.0951 H   0  0  0  0  0  0
   24.7091    7.8896   20.3809 C   0  0  0  0  0  0
   23.9897    8.6126   19.9911 H   0  0  0  0  0  0
   25.3386    7.6233   19.5340 H   0  0  0  0  0  0
   23.9849    6.6596   20.8171 N   0  3  0  0  0  0
   23.0803    6.8742   21.9693 C   0  0  0  0  0  0
   22.3188    7.6210   21.7370 H   0  0  0  0  0  0
   23.6342    7.2099   22.8457 H   0  0  0  0  0  0
   22.5793    5.9438   22.2412 H   0  0  0  0  0  0
   23.2926    5.9937   19.6899 C   0  0  0  0  0  0
   22.5046    6.6283   19.2785 H   0  0  0  0  0  0
   22.8435    5.0521   20.0103 H   0  0  0  0  0  0
   23.9978    5.7601   18.8916 H   0  0  0  0  0  0
   28.5475   10.7431   17.3045 C   0  0  0  0  0  0
   28.8121   11.2654   18.2243 H   0  0  0  0  0  0
   28.4844    9.6841   17.5511 H   0  0  0  0  0  0
   29.6553   10.9433   16.2654 C   0  0  0  0  0  0
   29.8364   12.0116   16.1480 H   0  0  0  0  0  0
   30.5913   10.5213   16.6296 H   0  0  0  0  0  0
   29.2524   10.3509   14.8973 C   0  0  1  0  0  0
   29.9506   10.7570   14.1629 H   0  0  0  0  0  0
   31.8418    8.6565   14.4329 C   0  0  0  0  0  0
   31.7356    9.2989   13.5712 H   0  0  0  0  0  0
   33.1203    8.2073   14.8095 C   0  0  0  0  0  0
   33.9845    8.5043   14.2361 H   0  0  0  0  0  0
   24.6748    5.9712   21.1189 H   0  0  0  0  0  0
  1  2  1  0  0  0
  2 62  1  0  0  0
  2  3  2  0  0  0
  3  4  1  0  0  0
  3  5  1  0  0  0
  5  6  1  0  0  0
  5  7  2  0  0  0
  7  8  1  0  0  0
  7 60  1  0  0  0
  8 58  1  0  0  0
  8  9  1  0  0  0
  8 10  1  0  0  0
 10 11  1  0  0  0
 10 12  1  0  0  0
 12 21  1  0  0  0
 12 13  2  0  0  0
 13 14  1  0  0  0
 13 15  1  0  0  0
 15 16  1  0  0  0
 15 17  2  0  0  0
 17 18  1  0  0  0
 17 19  1  0  0  0
 19 20  1  0  0  0
 19 21  2  0  0  0
 21 22  1  0  0  0
 22 58  1  0  0  0
 22 23  1  0  0  0
 22 24  1  0  0  0
 24 25  1  0  0  0
 25 26  1  0  0  0
 25 27  1  0  0  0
 25 52  1  0  0  0
 27 28  1  0  0  0
 27 29  1  0  0  0
 27 30  1  0  0  0
 30 31  1  0  0  0
 30 32  1  0  0  0
 32 33  2  0  0  0
 32 34  1  0  0  0
 34 35  1  0  0  0
 34 36  1  0  0  0
 34 37  1  0  0  0
 37 38  1  0  0  0
 37 39  1  0  0  0
 37 40  1  0  0  0
 40 41  1  0  0  0
 40 42  1  0  0  0
 40 43  1  0  0  0
 43 44  1  0  0  0
 43 48  1  0  0  0
 43 64  1  0  0  0
 44 45  1  0  0  0
 44 46  1  0  0  0
 44 47  1  0  0  0
 48 49  1  0  0  0
 48 50  1  0  0  0
 48 51  1  0  0  0
 52 53  1  0  0  0
 52 54  1  0  0  0
 52 55  1  0  0  0
 55 56  1  0  0  0
 55 57  1  0  0  0
 55 58  1  0  0  0
 58 59  1  0  0  0
 60 61  1  0  0  0
 60 62  2  0  0  0
 62 63  1  0  0  0
M  CHG  1  43   1
M  END
> <s_m_source_file>
ligprep_eg5.smi

> <i_m_source_file_index>
18

> <i_lp_mmshare_version>
53161

> <i_f3d_flags>
0

> <s_epik_input>
RmMxW2NIXWMoQnIpW2NIXWMoYzEyKVtDQEBIXTNbQ0BIXShbQ0BASF0oW05IXTIpYzRbY0hdW2NIXVtjSF1bY0hdW2NIXTQpW0NIMl1bQ0gyXVtDQEBIXShPMylbQ0gyXVtOSF1DKD1PKVtDSDJdW0NIMl1bQ0gyXU4oW0NIM10pW0NIM10=

> <s_epik_cmdline>
J2VwaWtfcHl0aG9uJywgJy1waHQnLCAnMC4wJywgJy1waCcsICc3LjQnLCAnLXRuJywgJzgnLCAnLW1hJywgJzUwMCcsICctaW1hZScsICc8aW5maWxlLm1hZT4nLCAnLW9tYWUnLCAnPG91dGZpbGUubWFlPic=

> <r_lp_tautomer_probability>
1

> <r_epik_Ionization_Penalty>
  0.0076

> <r_epik_Ionization_Penalty_Charging>
  0.0076

> <r_epik_Ionization_Penalty_Neutral>
  0.0000

> <r_epik_State_Penalty>
 -0.0000

> <r_epik_Charging_Adjusted_Penalty>
0.00755766

> <i_epik_Tot_Q>
1

> <i_epik_Tot_abs_Q>
1

> <s_lp_Force_Field>
S-OPLS

> <r_lp_Energy>
47.4626

> <b_lp_Chiralities_Consistent>
1

> <s_lp_Variant>
lig_CHEMBL1085692-1

> <s_i_glide_gridfile>
glide-grid_EG5-3L9H

> <i_i_glide_lignum>
19

> <i_i_glide_rotatable_bonds>
8

> <r_i_docking_score>
-7.90619738560365

> <r_i_glide_ligand_efficiency>
-0.247068668300114

> <r_i_glide_ligand_efficiency_sa>
-0.784394127029799

> <r_i_glide_ligand_efficiency_ln>
-1.77041310943779

> <r_i_glide_gscore>
-7.90619738560365

> <r_i_glide_lipo>
-4.52171243564274

> <r_i_glide_hbond>
-0.28307585595687

> <r_i_glide_metal>
-0

> <r_i_glide_rewards>
-0.202519619301997

> <r_i_glide_evdw>
-45.3497924804688

> <r_i_glide_ecoul>
-7.39303827285767

> <r_i_glide_erotb>
0.560426754633708

> <r_i_glide_esite>
-0.0828708643836668

> <r_i_glide_emodel>
-81.0586723985029

> <r_i_glide_energy>
-52.7428307533264

> <r_i_glide_einternal>
3.73035311698914

> <i_i_glide_confnum>
10

> <i_i_glide_posenum>
29

> <r_i_glide_eff_state_penalty>
-0

> <r_i_glide_rmsd>
0.0914115773960593

> <s_glide_core_constrain_type>
snapped_core_restrain

$$$$
lig_CHEMBL1082248
                    3D
 Schrodinger Suite 2022-3.
 48 51  0  0  1  0            999 V2000
   34.2645    7.0446   16.2096 H   0  0  0  0  0  0
   33.2802    7.3883   15.9249 C   0  0  0  0  0  0
   33.1229    8.2179   14.8009 C   0  0  0  0  0  0
   33.9848    8.5147   14.2230 H   0  0  0  0  0  0
   31.8413    8.6673   14.4347 C   0  0  0  0  0  0
   31.7274    9.3080   13.5729 H   0  0  0  0  0  0
   30.7087    8.2887   15.1874 C   0  0  0  0  0  0
   29.3320    8.8074   14.8013 C   0  0  2  0  0  0
   28.6095    8.3700   15.4927 H   0  0  0  0  0  0
   28.9611    8.3383   13.4711 N   0  0  0  0  0  0
   29.1463    7.3658   13.2557 H   0  0  0  0  0  0
   27.9355    8.9888   12.7684 C   0  0  0  0  0  0
   27.4900    8.4510   11.5440 C   0  0  0  0  0  0
   27.9849    7.2890   11.1189 F   0  0  0  0  0  0
   26.5257    9.0900   10.7559 C   0  0  0  0  0  0
   26.2109    8.6659    9.8148 H   0  0  0  0  0  0
   25.9959   10.2975   11.2127 C   0  0  0  0  0  0
   24.7847   11.2882   10.1792 Br  0  0  0  0  0  0
   26.3839   10.8344   12.4510 C   0  0  0  0  0  0
   25.9623   11.7734   12.7793 H   0  0  0  0  0  0
   27.3597   10.1911   13.2317 C   0  0  0  0  0  0
   27.8211   10.8295   14.5259 C   0  0  1  0  0  0
   27.8400   11.9091   14.3642 H   0  0  0  0  0  0
   26.9076   10.5334   15.5817 O   0  0  0  0  0  0
   27.1881   11.2319   16.7860 C   0  0  1  0  0  0
   27.2467   12.2944   16.5419 H   0  0  0  0  0  0
   25.9761   11.0600   17.7355 C   0  0  0  0  0  0
   25.7625   12.0080   18.2303 H   0  0  0  0  0  0
   25.0871   10.8364   17.1442 H   0  0  0  0  0  0
   26.1333   10.0067   18.7655 N   0  3  0  0  0  0
   25.2253    9.5851   18.9016 H   0  0  0  0  0  0
   26.5959   10.4700   20.0899 C   0  0  0  0  0  0
   26.6594    9.6257   20.7768 H   0  0  0  0  0  0
   25.8958   11.1937   20.5105 H   0  0  0  0  0  0
   27.5796   10.9353   20.0395 H   0  0  0  0  0  0
   28.5605   10.7643   17.3218 C   0  0  0  0  0  0
   28.8353   11.3254   18.2141 H   0  0  0  0  0  0
   28.5271    9.7105   17.5982 H   0  0  0  0  0  0
   29.6507   10.9577   16.2635 C   0  0  0  0  0  0
   29.8282   12.0269   16.1331 H   0  0  0  0  0  0
   30.5935   10.5425   16.6164 H   0  0  0  0  0  0
   29.2373   10.3538   14.9045 C   0  0  1  0  0  0
   29.9246   10.7635   14.1619 H   0  0  0  0  0  0
   30.8677    7.4318   16.2959 C   0  0  0  0  0  0
   30.0085    7.1178   16.8682 H   0  0  0  0  0  0
   32.1527    6.9883   16.6664 C   0  0  0  0  0  0
   32.2723    6.3360   17.5204 H   0  0  0  0  0  0
   26.7485    9.2900   18.4051 H   0  0  0  0  0  0
  1  2  1  0  0  0
  2 46  1  0  0  0
  2  3  2  0  0  0
  3  4  1  0  0  0
  3  5  1  0  0  0
  5  6  1  0  0  0
  5  7  2  0  0  0
  7  8  1  0  0  0
  7 44  1  0  0  0
  8 42  1  0  0  0
  8  9  1  0  0  0
  8 10  1  0  0  0
 10 11  1  0  0  0
 10 12  1  0  0  0
 12 21  1  0  0  0
 12 13  2  0  0  0
 13 14  1  0  0  0
 13 15  1  0  0  0
 15 16  1  0  0  0
 15 17  2  0  0  0
 17 18  1  0  0  0
 17 19  1  0  0  0
 19 20  1  0  0  0
 19 21  2  0  0  0
 21 22  1  0  0  0
 22 42  1  0  0  0
 22 23  1  0  0  0
 22 24  1  0  0  0
 24 25  1  0  0  0
 25 26  1  0  0  0
 25 27  1  0  0  0
 25 36  1  0  0  0
 27 28  1  0  0  0
 27 29  1  0  0  0
 27 30  1  0  0  0
 30 31  1  0  0  0
 30 32  1  0  0  0
 30 48  1  0  0  0
 32 33  1  0  0  0
 32 34  1  0  0  0
 32 35  1  0  0  0
 36 37  1  0  0  0
 36 38  1  0  0  0
 36 39  1  0  0  0
 39 40  1  0  0  0
 39 41  1  0  0  0
 39 42  1  0  0  0
 42 43  1  0  0  0
 44 45  1  0  0  0
 44 46  2  0  0  0
 46 47  1  0  0  0
M  CHG  1  30   1
M  END
> <s_m_source_file>
ligprep_eg5.smi

> <i_m_source_file_index>
6

> <i_lp_mmshare_version>
53161

> <i_f3d_flags>
0

> <s_epik_input>
W2NIXTFbY0hdW2NIXVtjSF1bY0hdYzFbQ0BIXShbTkhdMilbQ0BASF0oW0NASF0zYyhjMjQpW2NIXWMoQnIpW2NIXWM0RilbQ0gyXVtDSDJdW0NAQEhdKE8zKVtDSDJdW05IXVtDSDNd

> <s_epik_cmdline>
J2VwaWtfcHl0aG9uJywgJy1waHQnLCAnMC4wJywgJy1waCcsICc3LjQnLCAnLXRuJywgJzgnLCAnLW1hJywgJzUwMCcsICctaW1hZScsICc8aW5maWxlLm1hZT4nLCAnLW9tYWUnLCAnPG91dGZpbGUubWFlPic=

> <r_lp_tautomer_probability>
1

> <r_epik_Ionization_Penalty>
  0.0025

> <r_epik_Ionization_Penalty_Charging>
  0.0025

> <r_epik_Ionization_Penalty_Neutral>
  0.0000

> <r_epik_State_Penalty>
 -0.0000

> <r_epik_Charging_Adjusted_Penalty>
0.00245839

> <i_epik_Tot_Q>
1

> <i_epik_Tot_abs_Q>
1

> <s_lp_Force_Field>
S-OPLS

> <r_lp_Energy>
42.3512

> <b_lp_Chiralities_Consistent>
1

> <s_lp_Variant>
lig_CHEMBL1082248-1

> <s_i_glide_gridfile>
glide-grid_EG5-3L9H

> <i_i_glide_lignum>
6

> <i_i_glide_rotatable_bonds>
3

> <r_i_docking_score>
-7.64620594616547

> <r_i_glide_ligand_efficiency>
-0.305848237846619

> <r_i_glide_ligand_efficiency_sa>
-0.894305671705108

> <r_i_glide_ligand_efficiency_ln>
-1.8123799475431

> <r_i_glide_gscore>
-7.64620594616547

> <r_i_glide_lipo>
-4.52933187182784

> <r_i_glide_hbond>
-0.0935460694148881

> <r_i_glide_metal>
-0

> <r_i_glide_rewards>
-0.831644008056144

> <r_i_glide_evdw>
-39.7532691955566

> <r_i_glide_ecoul>
-3.74200963973999

> <r_i_glide_erotb>
0.357280908872234

> <r_i_glide_esite>
0

> <r_i_glide_emodel>
-65.8197927106689

> <r_i_glide_energy>
-43.4952788352966

> <r_i_glide_einternal>
-7.21261770308956e-08

> <i_i_glide_confnum>
2

> <i_i_glide_posenum>
2

> <r_i_glide_eff_state_penalty>
-0

> <r_i_glide_rmsd>
0.0937033031326501

> <s_glide_core_constrain_type>
snapped_core_restrain

$$$$
lig_CHEMBL1096002
                    3D
 Schrodinger Suite 2022-3.
 52 55  0  0  1  0            999 V2000
   27.7289    8.9773   22.7156 H   0  0  0  0  0  0
   27.5847    9.7211   22.1457 O   0  0  0  0  0  0
   26.9302    9.2880   20.9755 C   0  0  0  0  0  0
   27.5850    8.5883   20.4571 H   0  0  0  0  0  0
   26.0175    8.7530   21.2428 H   0  0  0  0  0  0
   26.6264   10.4826   20.0649 C   0  0  0  0  0  0
   25.8828   11.1314   20.5308 H   0  0  0  0  0  0
   27.5284   11.0795   19.9386 H   0  0  0  0  0  0
   26.1312   10.0210   18.7503 N   0  3  0  0  0  0
   26.7429    9.3070   18.3788 H   0  0  0  0  0  0
   25.9674   11.0714   17.7200 C   0  0  0  0  0  0
   25.0772   10.8410   17.1322 H   0  0  0  0  0  0
   25.7483   12.0145   18.2164 H   0  0  0  0  0  0
   27.1764   11.2502   16.7650 C   0  0  2  0  0  0
   27.2311   12.3145   16.5287 H   0  0  0  0  0  0
   26.8985   10.5612   15.5506 O   0  0  0  0  0  0
   27.8134   10.8642   14.4942 C   0  0  2  0  0  0
   27.8256   11.9446   14.3384 H   0  0  0  0  0  0
   27.3570   10.2269   13.1955 C   0  0  0  0  0  0
   26.3671   10.8553   12.4169 C   0  0  0  0  0  0
   25.9200   11.7798   12.7520 H   0  0  0  0  0  0
   25.9531   10.2888   11.1958 C   0  0  0  0  0  0
   24.6991   11.0650   10.3189 Cl  0  0  0  0  0  0
   26.5027    9.0830   10.7467 C   0  0  0  0  0  0
   26.1617    8.6252    9.8297 H   0  0  0  0  0  0
   27.4895    8.4688   11.5242 C   0  0  0  0  0  0
   27.9850    7.3018   11.1189 F   0  0  0  0  0  0
   27.9392    9.0241   12.7366 C   0  0  0  0  0  0
   28.9721    8.3836   13.4377 N   0  0  0  0  0  0
   29.1846    7.4222   13.1998 H   0  0  0  0  0  0
   29.3273    8.8467   14.7724 C   0  0  1  0  0  0
   28.5948    8.4090   15.4532 H   0  0  0  0  0  0
   30.6970    8.3194   15.1723 C   0  0  0  0  0  0
   30.8373    7.4471   16.2719 C   0  0  0  0  0  0
   29.9724    7.1317   16.8333 H   0  0  0  0  0  0
   32.1148    6.9884   16.6502 C   0  0  0  0  0  0
   32.2191    6.3264   17.4996 H   0  0  0  0  0  0
   33.2535    7.3883   15.9266 C   0  0  0  0  0  0
   34.2317    7.0317   16.2167 H   0  0  0  0  0  0
   33.1148    8.2312   14.8096 C   0  0  0  0  0  0
   33.9850    8.5284   14.2445 H   0  0  0  0  0  0
   31.8416    8.6992   14.4360 C   0  0  0  0  0  0
   31.7436    9.3516   13.5815 H   0  0  0  0  0  0
   29.2302   10.3926   14.8770 C   0  0  2  0  0  0
   29.9194   10.8021   14.1356 H   0  0  0  0  0  0
   29.6386   10.9941   16.2372 C   0  0  0  0  0  0
   30.5857   10.5867   16.5890 H   0  0  0  0  0  0
   29.8065   12.0643   16.1104 H   0  0  0  0  0  0
   28.5518   10.7883   17.2943 C   0  0  0  0  0  0
   28.8294   11.3474   18.1874 H   0  0  0  0  0  0
   28.5249    9.7332   17.5675 H   0  0  0  0  0  0
   25.2266    9.5964   18.9050 H   0  0  0  0  0  0
  1  2  1  0  0  0
  2  3  1  0  0  0
  3  4  1  0  0  0
  3  5  1  0  0  0
  3  6  1  0  0  0
  6  7  1  0  0  0
  6  8  1  0  0  0
  6  9  1  0  0  0
  9 10  1  0  0  0
  9 11  1  0  0  0
  9 52  1  0  0  0
 11 12  1  0  0  0
 11 13  1  0  0  0
 11 14  1  0  0  0
 14 49  1  0  0  0
 14 15  1  0  0  0
 14 16  1  0  0  0
 16 17  1  0  0  0
 17 44  1  0  0  0
 17 18  1  0  0  0
 17 19  1  0  0  0
 19 28  1  0  0  0
 19 20  2  0  0  0
 20 21  1  0  0  0
 20 22  1  0  0  0
 22 23  1  0  0  0
 22 24  2  0  0  0
 24 25  1  0  0  0
 24 26  1  0  0  0
 26 27  1  0  0  0
 26 28  2  0  0  0
 28 29  1  0  0  0
 29 30  1  0  0  0
 29 31  1  0  0  0
 31 32  1  0  0  0
 31 33  1  0  0  0
 31 44  1  0  0  0
 33 42  1  0  0  0
 33 34  2  0  0  0
 34 35  1  0  0  0
 34 36  1  0  0  0
 36 37  1  0  0  0
 36 38  2  0  0  0
 38 39  1  0  0  0
 38 40  1  0  0  0
 40 41  1  0  0  0
 40 42  2  0  0  0
 42 43  1  0  0  0
 44 45  1  0  0  0
 44 46  1  0  0  0
 46 47  1  0  0  0
 46 48  1  0  0  0
 46 49  1  0  0  0
 49 50  1  0  0  0
 49 51  1  0  0  0
M  CHG  1   9   1
M  END
> <s_m_source_file>
ligprep_eg5.smi

> <i_m_source_file_index>
27

> <i_lp_mmshare_version>
53161

> <i_f3d_flags>
0

> <s_epik_input>
W09IXVtDSDJdW0NIMl1bTkhdW0NIMl1bQ0BIXShPMSlbQ0gyXVtDSDJdW0NASF0yW0NAQEhdKFtOSF1jKGMzW0NAQEhdMTIpYyhGKVtjSF1jKENsKVtjSF0zKWM0W2NIXVtjSF1bY0hdW2NIXVtjSF00

> <s_epik_cmdline>
J2VwaWtfcHl0aG9uJywgJy1waHQnLCAnMC4wJywgJy1waCcsICc3LjQnLCAnLXRuJywgJzgnLCAnLW1hJywgJzUwMCcsICctaW1hZScsICc8aW5maWxlLm1hZT4nLCAnLW9tYWUnLCAnPG91dGZpbGUubWFlPic=

> <r_epik_Ionization_Penalty>
  0.0354

> <r_epik_Ionization_Penalty_Charging>
  0.0353

> <r_epik_Ionization_Penalty_Neutral>
  0.0000

> <r_epik_State_Penalty>
  0.0295

> <r_epik_Charging_Adjusted_Penalty>
0.064809

> <i_epik_Tot_Q>
1

> <i_epik_Tot_abs_Q>
1

> <s_lp_Force_Field>
S-OPLS

> <r_lp_Energy>
44.334

> <b_lp_Chiralities_Consistent>
1

> <s_lp_Variant>
lig_CHEMBL1096002-1

> <s_i_glide_gridfile>
glide-grid_EG5-3L9H

> <i_i_glide_lignum>
28

> <i_i_glide_rotatable_bonds>
6

> <r_i_docking_score>
-7.61390683929108

> <r_i_glide_ligand_efficiency>
-0.281996549603373

> <r_i_glide_ligand_efficiency_sa>
-0.845989647880705

> <r_i_glide_ligand_efficiency_ln>
-1.7723919871224

> <r_i_glide_gscore>
-7.64340683929108

> <r_i_glide_lipo>
-4.61347521137857

> <r_i_glide_hbond>
-0.0359021116715872

> <r_i_glide_metal>
-0

> <r_i_glide_rewards>
-0.936020864218221

> <r_i_glide_evdw>
-42.5991706848145

> <r_i_glide_ecoul>
-3.75695514678955

> <r_i_glide_erotb>
0.635493154236459

> <r_i_glide_esite>
0

> <r_i_glide_emodel>
-65.9276886742258

> <r_i_glide_energy>
-46.356125831604

> <r_i_glide_einternal>
0.522859871387482

> <i_i_glide_confnum>
10

> <i_i_glide_posenum>
2

> <r_i_glide_eff_state_penalty>
0.0295

> <r_i_glide_rmsd>
0.093194489622196

> <s_glide_core_constrain_type>
snapped_core_restrain

$$$$
lig_CHEMBL1082249
                    3D
 Schrodinger Suite 2022-3.
 58 61  0  0  1  0            999 V2000
   34.2516    7.0480   16.2407 H   0  0  0  0  0  0
   33.2700    7.3878   15.9441 C   0  0  0  0  0  0
   33.1208    8.2123   14.8154 C   0  0  0  0  0  0
   33.9852    8.5108   14.2434 H   0  0  0  0  0  0
   31.8431    8.6608   14.4362 C   0  0  0  0  0  0
   31.7395    9.3024   13.5739 H   0  0  0  0  0  0
   30.7042    8.2819   15.1795 C   0  0  0  0  0  0
   29.3329    8.8036   14.7827 C   0  0  2  0  0  0
   28.6015    8.3693   15.4668 H   0  0  0  0  0  0
   28.9740    8.3392   13.4481 N   0  0  0  0  0  0
   29.1600    7.3678   13.2234 H   0  0  0  0  0  0
   27.9519    8.9926   12.7444 C   0  0  0  0  0  0
   27.4978    8.4503   11.5275 C   0  0  0  0  0  0
   27.9850    7.2801   11.1189 F   0  0  0  0  0  0
   26.5126    9.0763   10.7531 C   0  0  0  0  0  0
   26.1593    8.6230    9.8392 H   0  0  0  0  0  0
   25.9663   10.2751   11.2173 C   0  0  0  0  0  0
   24.5301   11.1112   10.3189 Br  0  0  0  0  0  0
   26.3846   10.8297   12.4393 C   0  0  0  0  0  0
   25.9347   11.7477   12.7869 H   0  0  0  0  0  0
   27.3768   10.1948   13.2084 C   0  0  0  0  0  0
   27.8322   10.8314   14.5056 C   0  0  1  0  0  0
   27.8542   11.9112   14.3444 H   0  0  0  0  0  0
   26.9119   10.5394   15.5582 O   0  0  0  0  0  0
   27.1871   11.2368   16.7664 C   0  0  1  0  0  0
   27.2533   12.2986   16.5203 H   0  0  0  0  0  0
   25.9646   11.0756   17.7107 C   0  0  0  0  0  0
   25.7435   12.0295   18.1935 H   0  0  0  0  0  0
   25.0828   10.8430   17.1121 H   0  0  0  0  0  0
   26.1084   10.0349   18.7547 N   0  3  0  0  0  0
   25.1934    9.6416   18.9279 H   0  0  0  0  0  0
   26.6327   10.5135   20.0519 C   0  0  0  0  0  0
   27.5335   11.1056   19.9073 H   0  0  0  0  0  0
   25.8953   11.1729   20.5131 H   0  0  0  0  0  0
   26.9337    9.3346   20.9797 C   0  0  0  0  0  0
   26.0086    8.8027   21.2109 H   0  0  0  0  0  0
   27.5913    8.6278   20.4745 H   0  0  0  0  0  0
   27.5915    9.7745   22.2033 N   0  0  0  0  0  0
   28.1183   10.6349   22.1777 H   0  0  0  0  0  0
   27.5845    9.0812   23.3501 C   0  0  0  0  0  0
   26.9602    8.0341   23.4991 O   0  0  0  0  0  0
   28.4080    9.6461   24.5016 C   0  0  0  0  0  0
   28.7872   10.6444   24.2772 H   0  0  0  0  0  0
   29.2581    8.9934   24.7029 H   0  0  0  0  0  0
   27.8018    9.7048   25.4067 H   0  0  0  0  0  0
   28.5584   10.7639   17.3032 C   0  0  0  0  0  0
   28.8426   11.3272   18.1901 H   0  0  0  0  0  0
   28.5175    9.7113   17.5858 H   0  0  0  0  0  0
   29.6536   10.9530   16.2469 C   0  0  0  0  0  0
   29.8320   12.0218   16.1159 H   0  0  0  0  0  0
   30.5966   10.5408   16.6027 H   0  0  0  0  0  0
   29.2441   10.3500   14.8882 C   0  0  1  0  0  0
   29.9353   10.7553   14.1469 H   0  0  0  0  0  0
   30.8534    7.4269   16.2913 C   0  0  0  0  0  0
   29.9891    7.1119   16.8557 H   0  0  0  0  0  0
   32.1359    6.9881   16.6735 C   0  0  0  0  0  0
   32.2478    6.3369   17.5280 H   0  0  0  0  0  0
   26.6930    9.2959   18.3885 H   0  0  0  0  0  0
  1  2  1  0  0  0
  2 56  1  0  0  0
  2  3  2  0  0  0
  3  4  1  0  0  0
  3  5  1  0  0  0
  5  6  1  0  0  0
  5  7  2  0  0  0
  7  8  1  0  0  0
  7 54  1  0  0  0
  8 52  1  0  0  0
  8  9  1  0  0  0
  8 10  1  0  0  0
 10 11  1  0  0  0
 10 12  1  0  0  0
 12 21  1  0  0  0
 12 13  2  0  0  0
 13 14  1  0  0  0
 13 15  1  0  0  0
 15 16  1  0  0  0
 15 17  2  0  0  0
 17 18  1  0  0  0
 17 19  1  0  0  0
 19 20  1  0  0  0
 19 21  2  0  0  0
 21 22  1  0  0  0
 22 52  1  0  0  0
 22 23  1  0  0  0
 22 24  1  0  0  0
 24 25  1  0  0  0
 25 26  1  0  0  0
 25 27  1  0  0  0
 25 46  1  0  0  0
 27 28  1  0  0  0
 27 29  1  0  0  0
 27 30  1  0  0  0
 30 31  1  0  0  0
 30 32  1  0  0  0
 30 58  1  0  0  0
 32 33  1  0  0  0
 32 34  1  0  0  0
 32 35  1  0  0  0
 35 36  1  0  0  0
 35 37  1  0  0  0
 35 38  1  0  0  0
 38 39  1  0  0  0
 38 40  1  0  0  0
 40 41  2  0  0  0
 40 42  1  0  0  0
 42 43  1  0  0  0
 42 44  1  0  0  0
 42 45  1  0  0  0
 46 47  1  0  0  0
 46 48  1  0  0  0
 46 49  1  0  0  0
 49 50  1  0  0  0
 49 51  1  0  0  0
 49 52  1  0  0  0
 52 53  1  0  0  0
 54 55  1  0  0  0
 54 56  2  0  0  0
 56 57  1  0  0  0
M  CHG  1  30   1
M  END
> <s_m_source_file>
ligprep_eg5.smi

> <i_m_source_file_index>
7

> <i_lp_mmshare_version>
53161

> <i_f3d_flags>
0

> <s_epik_input>
RmMxW2NIXWMoQnIpW2NIXWMoYzEyKVtDQEBIXTNbQ0BIXShbQ0BASF0oW05IXTIpYzRbY0hdW2NIXVtjSF1bY0hdW2NIXTQpW0NIMl1bQ0gyXVtDQEBIXShPMylbQ0gyXVtOSF1bQ0gyXVtDSDJdW05IXUMoPU8pW0NIM10=

> <s_epik_cmdline>
J2VwaWtfcHl0aG9uJywgJy1waHQnLCAnMC4wJywgJy1waCcsICc3LjQnLCAnLXRuJywgJzgnLCAnLW1hJywgJzUwMCcsICctaW1hZScsICc8aW5maWxlLm1hZT4nLCAnLW9tYWUnLCAnPG91dGZpbGUubWFlPic=

> <r_lp_tautomer_probability>
1

> <r_epik_Ionization_Penalty>
  0.0077

> <r_epik_Ionization_Penalty_Charging>
  0.0077

> <r_epik_Ionization_Penalty_Neutral>
  0.0000

> <r_epik_State_Penalty>
 -0.0000

> <r_epik_Charging_Adjusted_Penalty>
0.00765215

> <i_epik_Tot_Q>
1

> <i_epik_Tot_abs_Q>
1

> <s_lp_Force_Field>
S-OPLS

> <r_lp_Energy>
33.3357

> <b_lp_Chiralities_Consistent>
1

> <s_lp_Variant>
lig_CHEMBL1082249-1

> <s_i_glide_gridfile>
glide-grid_EG5-3L9H

> <i_i_glide_lignum>
7

> <i_i_glide_rotatable_bonds>
7

> <r_i_docking_score>
-7.11232702404811

> <r_i_glide_ligand_efficiency>
-0.23707756746827

> <r_i_glide_ligand_efficiency_sa>
-0.736655123234709

> <r_i_glide_ligand_efficiency_ln>
-1.61599819487352

> <r_i_glide_gscore>
-7.11232702404811

> <r_i_glide_lipo>
-4.55664998253593

> <r_i_glide_hbond>
-0.0816780435388489

> <r_i_glide_metal>
-0

> <r_i_glide_rewards>
-0.348176918870169

> <r_i_glide_evdw>
-46.5956993103027

> <r_i_glide_ecoul>
-2.19561052322388

> <r_i_glide_erotb>
0.533304464895562

> <r_i_glide_esite>
0

> <r_i_glide_emodel>
-67.8709711424982

> <r_i_glide_energy>
-48.7913098335266

> <r_i_glide_einternal>
0.845360338687897

> <i_i_glide_confnum>
30

> <i_i_glide_posenum>
28

> <r_i_glide_eff_state_penalty>
-0

> <r_i_glide_rmsd>
0.0850935331009369

> <s_glide_core_constrain_type>
snapped_core_restrain

$$$$
