lig_p38a_2aa
                    3D
 Structure written by MMmdl.
 43 45  0  0  1  0            999 V2000
   34.5500   34.9800   21.1800 C   0  0  0  0  0  0
   34.0400   38.9800   23.7400 C   0  0  0  0  0  0
   34.8000   37.8100   21.4400 C   0  0  0  0  0  0
   35.2500   37.1300   20.2300 C   0  0  0  0  0  0
   34.3100   37.0400   22.5100 C   0  0  0  0  0  0
   34.8500   39.2100   21.6200 C   0  0  0  0  0  0
   35.1700   35.7800   20.1300 C   0  0  0  0  0  0
   33.6700   34.8300   23.4600 C   0  0  0  0  0  0
   34.4800   39.7900   22.7800 N   0  0  0  0  0  0
   34.3300   33.7800   21.0200 O   0  0  0  0  0  0
   34.2100   35.6200   22.3400 N   0  0  0  0  0  0
   33.9300   37.6500   23.6600 N   0  0  0  0  0  0
   33.6700   39.5700   24.9300 N   0  0  0  0  0  0
   35.7000   37.7400   19.4700 H   0  0  0  0  0  0
   35.2200   39.8600   20.8400 H   0  0  0  0  0  0
   33.5600   35.4400   24.3600 H   0  0  0  0  0  0
   32.6800   34.4500   23.2000 H   0  0  0  0  0  0
   34.2900   33.9900   23.7600 H   0  0  0  0  0  0
   33.7900   40.5700   24.9700 H   0  0  0  0  0  0
   33.1200   38.7100   26.0600 C   0  0  0  0  0  0
   33.9800   38.9300   27.3200 C   0  0  0  0  0  0
   31.6700   39.1100   26.3500 C   0  0  0  0  0  0
   33.1600   37.6600   25.7700 H   0  0  0  0  0  0
   33.4700   38.1400   28.3800 O   0  0  0  0  0  0
   35.0100   38.6400   27.1200 H   0  0  0  0  0  0
   33.9400   39.9800   27.6100 H   0  0  0  0  0  0
   31.1600   38.3200   27.4000 O   0  0  0  0  0  0
   31.6300   40.1600   26.6400 H   0  0  0  0  0  0
   31.0600   38.9600   25.4600 H   0  0  0  0  0  0
   34.0000   38.2700   29.1600 H   0  0  0  0  0  0
   30.2500   38.5700   27.5800 H   0  0  0  0  0  0
   35.6600   35.1800   19.0100 O   0  0  0  0  0  0
   37.2600   38.0600   16.4500 C   0  0  0  0  0  0
   38.0600   37.5000   17.4700 C   0  0  0  0  0  0
   37.5200   36.5300   18.3300 C   0  0  0  0  0  0
   36.1900   36.1200   18.1700 C   0  0  0  0  0  0
   35.3900   36.6700   17.1600 C   0  0  0  0  0  0
   35.9300   37.6400   16.3000 C   0  0  0  0  0  0
   37.7700   38.9800   15.6300 F   0  0  0  0  0  0
   39.1000   37.8300   17.5900 H   0  0  0  0  0  0
   38.2700   36.0100   19.2900 F   0  0  0  0  0  0
   34.3400   36.3500   17.0400 H   0  0  0  0  0  0
   35.3000   38.0800   15.5000 H   0  0  0  0  0  0
  1  7  1  0  0  0
  1 10  2  0  0  0
  1 11  1  0  0  0
  2  9  1  0  0  0
  2 12  2  0  0  0
  2 13  1  0  0  0
  3  4  1  0  0  0
  3  5  2  0  0  0
  3  6  1  0  0  0
  4  7  2  0  0  0
  4 14  1  0  0  0
  5 11  1  0  0  0
  5 12  1  0  0  0
  6  9  2  0  0  0
  6 15  1  0  0  0
  7 32  1  0  0  0
  8 11  1  0  0  0
  8 16  1  0  0  0
  8 17  1  0  0  0
  8 18  1  0  0  0
 13 19  1  0  0  0
 13 20  1  0  0  0
 20 21  1  0  0  0
 20 22  1  0  0  0
 20 23  1  0  0  0
 21 24  1  0  0  0
 21 25  1  0  0  0
 21 26  1  0  0  0
 22 27  1  0  0  0
 22 28  1  0  0  0
 22 29  1  0  0  0
 24 30  1  0  0  0
 27 31  1  0  0  0
 32 36  1  0  0  0
 33 34  1  0  0  0
 33 38  2  0  0  0
 33 39  1  0  0  0
 34 35  2  0  0  0
 34 40  1  0  0  0
 35 36  1  0  0  0
 35 41  1  0  0  0
 36 37  2  0  0  0
 37 38  1  0  0  0
 37 42  1  0  0  0
 38 43  1  0  0  0
M  END
> <s_m_entry_id>
1

> <s_m_entry_name>
lig_p38a_2aa.1

> <s_pdb_PDB_TITLE>
MX MODEL

> <i_pdb_PDB_Model>
1

> <r_pdb_PDB_CRYST1_a>
177.04

> <r_pdb_PDB_CRYST1_b>
135.86

> <r_pdb_PDB_CRYST1_c>
273.32

> <r_pdb_PDB_CRYST1_alpha>
90

> <r_pdb_PDB_CRYST1_beta>
90

> <r_pdb_PDB_CRYST1_gamma>
90

> <s_pdb_PDB_CRYST1_Space_Group>
P 1

> <i_pdb_PDB_CRYST1_z>
1

> <s_pdb_PDB_format_version>
3.0

> <s_m_Source_Path>
/users/home/dhahn3/projects/PLBenchmarks/PLBenchmarks/data/2019-12-09_p38/03_docked/lig_p38a_2aa

> <s_m_Source_File>
lig_p38a_2aa.pdb

> <i_m_Source_File_Index>
1

$$$$
lig_p38a_2bb
                    3D
 Structure written by MMmdl.
 44 46  0  0  1  0            999 V2000
   34.5500   34.9800   21.1800 C   0  0  0  0  0  0
   34.0400   38.9800   23.7400 C   0  0  0  0  0  0
   34.8000   37.8100   21.4400 C   0  0  0  0  0  0
   35.2500   37.1300   20.2300 C   0  0  0  0  0  0
   34.3100   37.0400   22.5100 C   0  0  0  0  0  0
   34.8500   39.2100   21.6200 C   0  0  0  0  0  0
   35.1700   35.7800   20.1300 C   0  0  0  0  0  0
   33.6700   34.8300   23.4600 C   0  0  0  0  0  0
   34.4800   39.7900   22.7800 N   0  0  0  0  0  0
   34.3300   33.7800   21.0200 O   0  0  0  0  0  0
   34.2100   35.6200   22.3400 N   0  0  0  0  0  0
   33.9300   37.6500   23.6600 N   0  0  0  0  0  0
   33.6700   39.5700   24.9300 N   0  0  0  0  0  0
   35.7000   37.7400   19.4700 H   0  0  0  0  0  0
   35.2200   39.8600   20.8400 H   0  0  0  0  0  0
   33.3200   35.4800   24.2700 H   0  0  0  0  0  0
   32.8300   34.2300   23.1200 H   0  0  0  0  0  0
   34.3900   34.1600   23.9300 H   0  0  0  0  0  0
   33.7900   40.5700   24.9700 H   0  0  0  0  0  0
   33.1200   38.7100   26.0600 C   0  0  0  0  0  0
   32.0900   38.9900   26.2600 H   0  0  0  0  0  0
   33.1700   37.6600   25.7800 H   0  0  0  0  0  0
   33.9700   38.9400   27.3300 C   0  0  0  0  0  0
   35.0000   38.6600   27.1300 H   0  0  0  0  0  0
   33.9200   39.9900   27.6100 H   0  0  0  0  0  0
   33.3200   37.9400   28.6600 S   0  0  0  0  0  0
   34.1600   38.1800   29.8600 O   0  0  0  0  0  0
   31.6600   38.4900   29.0100 C   0  0  0  0  0  0
   33.2600   36.5300   28.1900 O   0  0  0  0  0  0
   31.0300   38.3200   28.1400 H   0  0  0  0  0  0
   31.2600   37.9300   29.8600 H   0  0  0  0  0  0
   31.6700   39.5500   29.2500 H   0  0  0  0  0  0
   35.6600   35.1800   19.0100 O   0  0  0  0  0  0
   37.2600   38.0600   16.4500 C   0  0  0  0  0  0
   38.0700   37.4700   17.4400 C   0  0  0  0  0  0
   37.5300   36.5000   18.3000 C   0  0  0  0  0  0
   36.1900   36.1200   18.1700 C   0  0  0  0  0  0
   35.3800   36.7000   17.1800 C   0  0  0  0  0  0
   35.9200   37.6700   16.3200 C   0  0  0  0  0  0
   37.7700   38.9800   15.6300 F   0  0  0  0  0  0
   39.1200   37.7800   17.5500 H   0  0  0  0  0  0
   38.2900   35.9500   19.2500 F   0  0  0  0  0  0
   34.3200   36.4000   17.0800 H   0  0  0  0  0  0
   35.2800   38.1300   15.5400 H   0  0  0  0  0  0
  1  7  1  0  0  0
  1 10  2  0  0  0
  1 11  1  0  0  0
  2  9  1  0  0  0
  2 12  2  0  0  0
  2 13  1  0  0  0
  3  4  1  0  0  0
  3  5  2  0  0  0
  3  6  1  0  0  0
  4  7  2  0  0  0
  4 14  1  0  0  0
  5 11  1  0  0  0
  5 12  1  0  0  0
  6  9  2  0  0  0
  6 15  1  0  0  0
  7 33  1  0  0  0
  8 11  1  0  0  0
  8 16  1  0  0  0
  8 17  1  0  0  0
  8 18  1  0  0  0
 13 19  1  0  0  0
 13 20  1  0  0  0
 20 21  1  0  0  0
 20 22  1  0  0  0
 20 23  1  0  0  0
 23 24  1  0  0  0
 23 25  1  0  0  0
 23 26  1  0  0  0
 26 27  2  0  0  0
 26 28  1  0  0  0
 26 29  2  0  0  0
 28 30  1  0  0  0
 28 31  1  0  0  0
 28 32  1  0  0  0
 33 37  1  0  0  0
 34 35  1  0  0  0
 34 39  2  0  0  0
 34 40  1  0  0  0
 35 36  2  0  0  0
 35 41  1  0  0  0
 36 37  1  0  0  0
 36 42  1  0  0  0
 37 38  2  0  0  0
 38 39  1  0  0  0
 38 43  1  0  0  0
 39 44  1  0  0  0
M  END
> <s_m_entry_id>
2

> <s_m_entry_name>
lig_p38a_2bb.1

> <s_pdb_PDB_TITLE>
MX MODEL

> <i_pdb_PDB_Model>
1

> <r_pdb_PDB_CRYST1_a>
161.9

> <r_pdb_PDB_CRYST1_b>
135.86

> <r_pdb_PDB_CRYST1_c>
286.5

> <r_pdb_PDB_CRYST1_alpha>
90

> <r_pdb_PDB_CRYST1_beta>
90

> <r_pdb_PDB_CRYST1_gamma>
90

> <s_pdb_PDB_CRYST1_Space_Group>
P 1

> <i_pdb_PDB_CRYST1_z>
1

> <s_pdb_PDB_format_version>
3.0

> <s_m_Source_Path>
/users/home/dhahn3/projects/PLBenchmarks/PLBenchmarks/data/2019-12-09_p38/03_docked

> <s_m_Source_File>
lig_p38a_2bb.pdb

> <i_m_Source_File_Index>
1

$$$$
lig_p38a_2c
                    3D
 Structure written by MMmdl.
 45 48  0  0  1  0            999 V2000
   34.5500   34.9800   21.1800 C   0  0  0  0  0  0
   34.0400   38.9800   23.7400 C   0  0  0  0  0  0
   34.8000   37.8100   21.4400 C   0  0  0  0  0  0
   35.2500   37.1300   20.2300 C   0  0  0  0  0  0
   34.3100   37.0400   22.5100 C   0  0  0  0  0  0
   34.8500   39.2100   21.6200 C   0  0  0  0  0  0
   33.6300   34.8400   23.4300 C   0  0  0  0  0  0
   34.4800   39.7900   22.7800 N   0  0  0  0  0  0
   34.3300   33.7800   21.0200 O   0  0  0  0  0  0
   34.2100   35.6200   22.3400 N   0  0  0  0  0  0
   33.9300   37.6500   23.6600 N   0  0  0  0  0  0
   33.6700   39.5700   24.9300 N   0  0  0  0  0  0
   35.6900   37.7200   19.4400 H   0  0  0  0  0  0
   35.2200   39.8600   20.8400 H   0  0  0  0  0  0
   33.4200   35.4900   24.2800 H   0  0  0  0  0  0
   32.7000   34.3800   23.0900 H   0  0  0  0  0  0
   34.3300   34.0600   23.7300 H   0  0  0  0  0  0
   33.7400   40.5700   24.9900 H   0  0  0  0  0  0
   35.1700   35.7800   20.1300 C   0  0  0  0  0  0
   36.5600   33.8100   16.6000 C   0  0  0  0  0  0
   36.9700   33.3500   17.8600 C   0  0  0  0  0  0
   36.5100   34.0000   19.0000 C   0  0  0  0  0  0
   35.6500   35.0900   18.8900 C   0  0  0  0  0  0
   35.2400   35.5500   17.6300 C   0  0  0  0  0  0
   35.7100   34.9000   16.4900 C   0  0  0  0  0  0
   36.9200   33.3100   15.7100 H   0  0  0  0  0  0
   37.6400   32.5100   17.9400 H   0  0  0  0  0  0
   37.0132   33.4465   20.5599 Cl  0  0  0  0  0  0
   34.5800   36.3900   17.5500 H   0  0  0  0  0  0
   35.3900   35.2400   15.5200 H   0  0  0  0  0  0
   31.3000   38.3600   27.6500 C   0  0  0  0  0  0
   31.8000   39.1800   26.4500 C   0  0  0  0  0  0
   33.2100   38.7400   26.0300 C   0  0  0  0  0  0
   34.1900   38.8500   27.2100 C   0  0  0  0  0  0
   33.7000   38.0200   28.4100 C   0  0  0  0  0  0
   32.2900   38.4600   28.8300 O   0  0  0  0  0  0
   31.1900   37.2900   27.3500 H   0  0  0  0  0  0
   30.2900   38.7100   27.9700 H   0  0  0  0  0  0
   31.8100   40.2600   26.7200 H   0  0  0  0  0  0
   31.0900   39.0700   25.5900 H   0  0  0  0  0  0
   33.1800   37.6900   25.6600 H   0  0  0  0  0  0
   35.2000   38.4900   26.8900 H   0  0  0  0  0  0
   34.3000   39.9200   27.5100 H   0  0  0  0  0  0
   33.6900   36.9400   28.1300 H   0  0  0  0  0  0
   34.4100   38.1300   29.2600 H   0  0  0  0  0  0
  1  9  2  0  0  0
  1 10  1  0  0  0
  1 19  1  0  0  0
  2  8  1  0  0  0
  2 11  2  0  0  0
  2 12  1  0  0  0
  3  4  1  0  0  0
  3  5  2  0  0  0
  3  6  1  0  0  0
  4 13  1  0  0  0
  4 19  2  0  0  0
  5 10  1  0  0  0
  5 11  1  0  0  0
  6  8  2  0  0  0
  6 14  1  0  0  0
  7 10  1  0  0  0
  7 15  1  0  0  0
  7 16  1  0  0  0
  7 17  1  0  0  0
 12 18  1  0  0  0
 12 33  1  0  0  0
 19 23  1  0  0  0
 20 21  1  0  0  0
 20 25  2  0  0  0
 20 26  1  0  0  0
 21 22  2  0  0  0
 21 27  1  0  0  0
 22 23  1  0  0  0
 22 28  1  0  0  0
 23 24  2  0  0  0
 24 25  1  0  0  0
 24 29  1  0  0  0
 25 30  1  0  0  0
 31 32  1  0  0  0
 31 36  1  0  0  0
 31 37  1  0  0  0
 31 38  1  0  0  0
 32 33  1  0  0  0
 32 39  1  0  0  0
 32 40  1  0  0  0
 33 34  1  0  0  0
 33 41  1  0  0  0
 34 35  1  0  0  0
 34 42  1  0  0  0
 34 43  1  0  0  0
 35 36  1  0  0  0
 35 44  1  0  0  0
 35 45  1  0  0  0
M  END
> <s_m_entry_id>
1

> <s_m_entry_name>
lig_p38a_2c.1

> <s_pdb_PDB_TITLE>
MX MODEL

> <i_pdb_PDB_Model>
1

> <r_pdb_PDB_CRYST1_a>
146.94

> <r_pdb_PDB_CRYST1_b>
161.2

> <r_pdb_PDB_CRYST1_c>
274.98

> <r_pdb_PDB_CRYST1_alpha>
90

> <r_pdb_PDB_CRYST1_beta>
90

> <r_pdb_PDB_CRYST1_gamma>
90

> <s_pdb_PDB_CRYST1_Space_Group>
P 1

> <i_pdb_PDB_CRYST1_z>
1

> <s_pdb_PDB_format_version>
3.0

> <s_m_Source_Path>
/users/home/dhahn3/projects/PLBenchmarks/PLBenchmarks/data/2019-12-09_p38/03_docked/lig_p38a_2c

> <s_m_Source_File>
lig_p38a_2c.sdf

> <i_m_Source_File_Index>
1

> <chiral flag>
1

> <version>
0

$$$$
lig_p38a_2e
                    3D
 Structure written by MMmdl.
 46 49  0  0  1  0            999 V2000
   34.5500   34.9800   21.1800 C   0  0  0  0  0  0
   34.0400   38.9800   23.7400 C   0  0  0  0  0  0
   34.8000   37.8100   21.4400 C   0  0  0  0  0  0
   35.2500   37.1300   20.2300 C   0  0  0  0  0  0
   34.3100   37.0400   22.5100 C   0  0  0  0  0  0
   34.8500   39.2100   21.6200 C   0  0  0  0  0  0
   35.1700   35.7800   20.1300 C   0  0  0  0  0  0
   33.6300   34.8400   23.4300 C   0  0  0  0  0  0
   34.4800   39.7900   22.7800 N   0  0  0  0  0  0
   34.3300   33.7800   21.0200 O   0  0  0  0  0  0
   34.2100   35.6200   22.3400 N   0  0  0  0  0  0
   33.9300   37.6500   23.6600 N   0  0  0  0  0  0
   33.6700   39.5700   24.9300 N   0  0  0  0  0  0
   35.6900   37.7200   19.4400 H   0  0  0  0  0  0
   35.2200   39.8600   20.8400 H   0  0  0  0  0  0
   33.4200   35.4900   24.2800 H   0  0  0  0  0  0
   32.7000   34.3800   23.0900 H   0  0  0  0  0  0
   34.3300   34.0600   23.7300 H   0  0  0  0  0  0
   33.7300   40.5700   24.9800 H   0  0  0  0  0  0
   31.3100   38.3200   27.6400 C   0  0  0  0  0  0
   31.8000   39.1500   26.4400 C   0  0  0  0  0  0
   33.2200   38.7400   26.0300 C   0  0  0  0  0  0
   34.1900   38.8800   27.2200 C   0  0  0  0  0  0
   33.7100   38.0600   28.4200 C   0  0  0  0  0  0
   32.2800   38.4600   28.8300 O   0  0  0  0  0  0
   31.2300   37.2500   27.3500 H   0  0  0  0  0  0
   30.2900   38.6600   27.9500 H   0  0  0  0  0  0
   31.7800   40.2300   26.7000 H   0  0  0  0  0  0
   31.1000   39.0100   25.5800 H   0  0  0  0  0  0
   33.2200   37.6900   25.6700 H   0  0  0  0  0  0
   35.2200   38.5500   26.9100 H   0  0  0  0  0  0
   34.2700   39.9500   27.5100 H   0  0  0  0  0  0
   33.7300   36.9700   28.1600 H   0  0  0  0  0  0
   34.4100   38.1900   29.2800 H   0  0  0  0  0  0
   35.6600   35.1800   19.0100 O   0  0  0  0  0  0
   37.2600   38.0600   16.4500 C   0  0  0  0  0  0
   38.0800   37.4500   17.4200 C   0  0  0  0  0  0
   37.5400   36.4800   18.2800 C   0  0  0  0  0  0
   36.1900   36.1200   18.1700 C   0  0  0  0  0  0
   35.3700   36.7300   17.2100 C   0  0  0  0  0  0
   35.9100   37.7000   16.3500 C   0  0  0  0  0  0
   37.7700   38.9800   15.6300 F   0  0  0  0  0  0
   39.1400   37.7300   17.5000 H   0  0  0  0  0  0
   38.1800   36.0000   19.0400 H   0  0  0  0  0  0
   34.3100   36.4400   17.1200 H   0  0  0  0  0  0
   35.2700   38.1800   15.5900 H   0  0  0  0  0  0
  1  7  1  0  0  0
  1 10  2  0  0  0
  1 11  1  0  0  0
  2  9  1  0  0  0
  2 12  2  0  0  0
  2 13  1  0  0  0
  3  4  1  0  0  0
  3  5  2  0  0  0
  3  6  1  0  0  0
  4  7  2  0  0  0
  4 14  1  0  0  0
  5 11  1  0  0  0
  5 12  1  0  0  0
  6  9  2  0  0  0
  6 15  1  0  0  0
  7 35  1  0  0  0
  8 11  1  0  0  0
  8 16  1  0  0  0
  8 17  1  0  0  0
  8 18  1  0  0  0
 13 19  1  0  0  0
 13 22  1  0  0  0
 20 21  1  0  0  0
 20 25  1  0  0  0
 20 26  1  0  0  0
 20 27  1  0  0  0
 21 22  1  0  0  0
 21 28  1  0  0  0
 21 29  1  0  0  0
 22 23  1  0  0  0
 22 30  1  0  0  0
 23 24  1  0  0  0
 23 31  1  0  0  0
 23 32  1  0  0  0
 24 25  1  0  0  0
 24 33  1  0  0  0
 24 34  1  0  0  0
 35 39  1  0  0  0
 36 37  1  0  0  0
 36 41  2  0  0  0
 36 42  1  0  0  0
 37 38  2  0  0  0
 37 43  1  0  0  0
 38 39  1  0  0  0
 38 44  1  0  0  0
 39 40  2  0  0  0
 40 41  1  0  0  0
 40 45  1  0  0  0
 41 46  1  0  0  0
M  END
> <s_m_entry_id>
3

> <s_m_entry_name>
lig_p38a_2e.1

> <s_pdb_PDB_TITLE>
MX MODEL

> <i_pdb_PDB_Model>
1

> <r_pdb_PDB_CRYST1_a>
176.98

> <r_pdb_PDB_CRYST1_b>
135.84

> <r_pdb_PDB_CRYST1_c>
273.96

> <r_pdb_PDB_CRYST1_alpha>
90

> <r_pdb_PDB_CRYST1_beta>
90

> <r_pdb_PDB_CRYST1_gamma>
90

> <s_pdb_PDB_CRYST1_Space_Group>
P 1

> <i_pdb_PDB_CRYST1_z>
1

> <s_pdb_PDB_format_version>
3.0

> <s_m_Source_Path>
/users/home/dhahn3/projects/PLBenchmarks/PLBenchmarks/data/2019-12-09_p38/03_docked

> <s_m_Source_File>
lig_p38a_2e.pdb

> <i_m_Source_File_Index>
1

$$$$
lig_p38a_2ee
                    3D
 Structure written by MMmdl.
 52 55  0  0  1  0            999 V2000
   34.5500   34.9800   21.1800 C   0  0  0  0  0  0
   34.0400   38.9800   23.7400 C   0  0  0  0  0  0
   34.8000   37.8100   21.4400 C   0  0  0  0  0  0
   35.2500   37.1300   20.2300 C   0  0  0  0  0  0
   34.3100   37.0400   22.5100 C   0  0  0  0  0  0
   34.8500   39.2100   21.6200 C   0  0  0  0  0  0
   35.1700   35.7800   20.1300 C   0  0  0  0  0  0
   33.6700   34.8300   23.4600 C   0  0  0  0  0  0
   34.4800   39.7900   22.7800 N   0  0  0  0  0  0
   34.3300   33.7800   21.0200 O   0  0  0  0  0  0
   34.2100   35.6200   22.3400 N   0  0  0  0  0  0
   33.9300   37.6500   23.6600 N   0  0  0  0  0  0
   33.6700   39.5700   24.9300 N   0  0  0  0  0  0
   35.7000   37.7400   19.4700 H   0  0  0  0  0  0
   35.2200   39.8600   20.8400 H   0  0  0  0  0  0
   33.4000   35.4700   24.3000 H   0  0  0  0  0  0
   32.7700   34.3000   23.1400 H   0  0  0  0  0  0
   34.3700   34.1000   23.8700 H   0  0  0  0  0  0
   33.7900   40.5700   24.9700 H   0  0  0  0  0  0
   31.1200   38.3000   27.4500 C   0  0  0  0  0  0
   31.6800   39.1100   26.2700 C   0  0  0  0  0  0
   33.1500   38.7500   26.0100 C   0  0  0  0  0  0
   34.0000   38.9500   27.2700 C   0  0  0  0  0  0
   33.4400   38.1300   28.4500 C   0  0  0  0  0  0
   31.1000   37.2200   27.1800 H   0  0  0  0  0  0
   30.0600   38.6000   27.6500 H   0  0  0  0  0  0
   31.6000   40.2000   26.5100 H   0  0  0  0  0  0
   31.0700   38.9300   25.3600 H   0  0  0  0  0  0
   33.2200   37.6900   25.6700 H   0  0  0  0  0  0
   35.0600   38.6500   27.0700 H   0  0  0  0  0  0
   34.0200   40.0300   27.5400 H   0  0  0  0  0  0
   33.5200   37.0400   28.2100 H   0  0  0  0  0  0
   34.0500   38.3100   29.3600 H   0  0  0  0  0  0
   32.0000   38.4700   28.6500 N   0  0  0  0  0  0
   31.5100   38.9100   29.8600 C   0  0  0  0  0  0
   30.4900   39.5600   29.9200 O   0  0  0  0  0  0
   32.2800   38.5700   31.1500 C   0  0  0  0  0  0
   33.1600   37.9800   30.9000 H   0  0  0  0  0  0
   32.5800   39.4800   31.6500 H   0  0  0  0  0  0
   31.6400   37.9900   31.8200 H   0  0  0  0  0  0
   35.6600   35.1800   19.0100 O   0  0  0  0  0  0
   37.2600   38.0600   16.4500 C   0  0  0  0  0  0
   38.0700   37.4600   17.4300 C   0  0  0  0  0  0
   37.5300   36.4900   18.2900 C   0  0  0  0  0  0
   36.1900   36.1200   18.1700 C   0  0  0  0  0  0
   35.3700   36.7200   17.2000 C   0  0  0  0  0  0
   35.9100   37.6900   16.3400 C   0  0  0  0  0  0
   37.7700   38.9800   15.6300 F   0  0  0  0  0  0
   39.1300   37.7500   17.5200 H   0  0  0  0  0  0
   38.3100   35.9200   19.2100 F   0  0  0  0  0  0
   34.3100   36.4300   17.1100 H   0  0  0  0  0  0
   35.2700   38.1600   15.5700 H   0  0  0  0  0  0
  1  7  1  0  0  0
  1 10  2  0  0  0
  1 11  1  0  0  0
  2  9  1  0  0  0
  2 12  2  0  0  0
  2 13  1  0  0  0
  3  4  1  0  0  0
  3  5  2  0  0  0
  3  6  1  0  0  0
  4  7  2  0  0  0
  4 14  1  0  0  0
  5 11  1  0  0  0
  5 12  1  0  0  0
  6  9  2  0  0  0
  6 15  1  0  0  0
  7 41  1  0  0  0
  8 11  1  0  0  0
  8 16  1  0  0  0
  8 17  1  0  0  0
  8 18  1  0  0  0
 13 19  1  0  0  0
 13 22  1  0  0  0
 20 21  1  0  0  0
 20 25  1  0  0  0
 20 26  1  0  0  0
 20 34  1  0  0  0
 21 22  1  0  0  0
 21 27  1  0  0  0
 21 28  1  0  0  0
 22 23  1  0  0  0
 22 29  1  0  0  0
 23 24  1  0  0  0
 23 30  1  0  0  0
 23 31  1  0  0  0
 24 32  1  0  0  0
 24 33  1  0  0  0
 24 34  1  0  0  0
 34 35  1  0  0  0
 35 36  2  0  0  0
 35 37  1  0  0  0
 37 38  1  0  0  0
 37 39  1  0  0  0
 37 40  1  0  0  0
 41 45  1  0  0  0
 42 43  1  0  0  0
 42 47  2  0  0  0
 42 48  1  0  0  0
 43 44  2  0  0  0
 43 49  1  0  0  0
 44 45  1  0  0  0
 44 50  1  0  0  0
 45 46  2  0  0  0
 46 47  1  0  0  0
 46 51  1  0  0  0
 47 52  1  0  0  0
M  END
> <s_m_entry_id>
4

> <s_m_entry_name>
lig_p38a_2ee.1

> <s_pdb_PDB_TITLE>
MX MODEL

> <i_pdb_PDB_Model>
1

> <r_pdb_PDB_CRYST1_a>
181.44

> <r_pdb_PDB_CRYST1_b>
135.86

> <r_pdb_PDB_CRYST1_c>
324.92

> <r_pdb_PDB_CRYST1_alpha>
90

> <r_pdb_PDB_CRYST1_beta>
90

> <r_pdb_PDB_CRYST1_gamma>
90

> <s_pdb_PDB_CRYST1_Space_Group>
P 1

> <i_pdb_PDB_CRYST1_z>
1

> <s_pdb_PDB_format_version>
3.0

> <s_m_Source_Path>
/users/home/dhahn3/projects/PLBenchmarks/PLBenchmarks/data/2019-12-09_p38/03_docked

> <s_m_Source_File>
lig_p38a_2ee.pdb

> <i_m_Source_File_Index>
1

$$$$
lig_p38a_2f
                    3D
 Structure written by MMmdl.
 46 49  0  0  1  0            999 V2000
   34.5500   34.9800   21.1800 C   0  0  0  0  0  0
   34.0400   38.9800   23.7400 C   0  0  0  0  0  0
   34.8000   37.8100   21.4400 C   0  0  0  0  0  0
   35.2500   37.1300   20.2300 C   0  0  0  0  0  0
   34.3100   37.0400   22.5100 C   0  0  0  0  0  0
   34.8500   39.2100   21.6200 C   0  0  0  0  0  0
   35.1700   35.7800   20.1300 C   0  0  0  0  0  0
   33.6300   34.8400   23.4300 C   0  0  0  0  0  0
   34.4800   39.7900   22.7800 N   0  0  0  0  0  0
   34.3300   33.7800   21.0200 O   0  0  0  0  0  0
   34.2100   35.6200   22.3400 N   0  0  0  0  0  0
   33.9300   37.6500   23.6600 N   0  0  0  0  0  0
   33.6700   39.5700   24.9300 N   0  0  0  0  0  0
   35.6900   37.7200   19.4400 H   0  0  0  0  0  0
   35.2200   39.8600   20.8400 H   0  0  0  0  0  0
   33.4200   35.4900   24.2800 H   0  0  0  0  0  0
   32.7000   34.3800   23.0900 H   0  0  0  0  0  0
   34.3300   34.0600   23.7300 H   0  0  0  0  0  0
   33.7400   40.5700   24.9900 H   0  0  0  0  0  0
   31.2300   38.2300   27.5300 C   0  0  0  0  0  0
   31.7400   39.0600   26.3300 C   0  0  0  0  0  0
   33.2100   38.7400   26.0300 C   0  0  0  0  0  0
   34.0900   38.9800   27.2700 C   0  0  0  0  0  0
   33.5900   38.1600   28.4600 C   0  0  0  0  0  0
   32.1200   38.4700   28.7700 O   0  0  0  0  0  0
   31.2500   37.1500   27.2700 H   0  0  0  0  0  0
   30.1700   38.5000   27.7600 H   0  0  0  0  0  0
   31.6300   40.1500   26.5600 H   0  0  0  0  0  0
   31.1100   38.8500   25.4300 H   0  0  0  0  0  0
   33.3000   37.6800   25.7000 H   0  0  0  0  0  0
   35.1500   38.7200   27.0400 H   0  0  0  0  0  0
   34.0800   40.0700   27.5300 H   0  0  0  0  0  0
   33.7000   37.0700   28.2400 H   0  0  0  0  0  0
   34.2200   38.3700   29.3600 H   0  0  0  0  0  0
   35.6600   35.1800   19.0100 O   0  0  0  0  0  0
   37.2600   38.0600   16.4500 C   0  0  0  0  0  0
   38.0400   37.5300   17.4900 C   0  0  0  0  0  0
   37.5100   36.5600   18.3500 C   0  0  0  0  0  0
   36.1900   36.1200   18.1700 C   0  0  0  0  0  0
   35.4000   36.6500   17.1300 C   0  0  0  0  0  0
   35.9400   37.6200   16.2700 C   0  0  0  0  0  0
   37.6800   38.8200   15.7800 H   0  0  0  0  0  0
   39.0800   37.8800   17.6300 H   0  0  0  0  0  0
   38.1200   36.1500   19.1700 H   0  0  0  0  0  0
   34.3700   36.3000   16.9900 H   0  0  0  0  0  0
   35.2000   38.1200   15.2900 F   0  0  0  0  0  0
  1  7  1  0  0  0
  1 10  2  0  0  0
  1 11  1  0  0  0
  2  9  1  0  0  0
  2 12  2  0  0  0
  2 13  1  0  0  0
  3  4  1  0  0  0
  3  5  2  0  0  0
  3  6  1  0  0  0
  4  7  2  0  0  0
  4 14  1  0  0  0
  5 11  1  0  0  0
  5 12  1  0  0  0
  6  9  2  0  0  0
  6 15  1  0  0  0
  7 35  1  0  0  0
  8 11  1  0  0  0
  8 16  1  0  0  0
  8 17  1  0  0  0
  8 18  1  0  0  0
 13 19  1  0  0  0
 13 22  1  0  0  0
 20 21  1  0  0  0
 20 25  1  0  0  0
 20 26  1  0  0  0
 20 27  1  0  0  0
 21 22  1  0  0  0
 21 28  1  0  0  0
 21 29  1  0  0  0
 22 23  1  0  0  0
 22 30  1  0  0  0
 23 24  1  0  0  0
 23 31  1  0  0  0
 23 32  1  0  0  0
 24 25  1  0  0  0
 24 33  1  0  0  0
 24 34  1  0  0  0
 35 39  1  0  0  0
 36 37  1  0  0  0
 36 41  2  0  0  0
 36 42  1  0  0  0
 37 38  2  0  0  0
 37 43  1  0  0  0
 38 39  1  0  0  0
 38 44  1  0  0  0
 39 40  2  0  0  0
 40 41  1  0  0  0
 40 45  1  0  0  0
 41 46  1  0  0  0
M  END
> <s_m_entry_id>
5

> <s_m_entry_name>
lig_p38a_2f.1

> <s_pdb_PDB_TITLE>
MX MODEL

> <i_pdb_PDB_Model>
1

> <r_pdb_PDB_CRYST1_a>
178.16

> <r_pdb_PDB_CRYST1_b>
135.84

> <r_pdb_PDB_CRYST1_c>
281.54

> <r_pdb_PDB_CRYST1_alpha>
90

> <r_pdb_PDB_CRYST1_beta>
90

> <r_pdb_PDB_CRYST1_gamma>
90

> <s_pdb_PDB_CRYST1_Space_Group>
P 1

> <i_pdb_PDB_CRYST1_z>
1

> <s_pdb_PDB_format_version>
3.0

> <s_m_Source_Path>
/users/home/dhahn3/projects/PLBenchmarks/PLBenchmarks/data/2019-12-09_p38/03_docked

> <s_m_Source_File>
lig_p38a_2f.pdb

> <i_m_Source_File_Index>
1

$$$$
lig_p38a_2ff
                    3D
 Structure written by MMmdl.
 49 52  0  0  1  0            999 V2000
   34.5500   34.9800   21.1800 C   0  0  0  0  0  0
   34.0400   38.9800   23.7400 C   0  0  0  0  0  0
   34.8000   37.8100   21.4400 C   0  0  0  0  0  0
   35.2500   37.1300   20.2300 C   0  0  0  0  0  0
   34.3100   37.0400   22.5100 C   0  0  0  0  0  0
   34.8500   39.2100   21.6200 C   0  0  0  0  0  0
   35.1700   35.7800   20.1300 C   0  0  0  0  0  0
   33.6700   34.8300   23.4600 C   0  0  0  0  0  0
   34.4800   39.7900   22.7800 N   0  0  0  0  0  0
   34.3300   33.7800   21.0200 O   0  0  0  0  0  0
   34.2100   35.6200   22.3400 N   0  0  0  0  0  0
   33.9300   37.6500   23.6600 N   0  0  0  0  0  0
   33.6700   39.5700   24.9300 N   0  0  0  0  0  0
   35.7000   37.7400   19.4700 H   0  0  0  0  0  0
   35.2200   39.8600   20.8400 H   0  0  0  0  0  0
   33.4000   35.4700   24.3000 H   0  0  0  0  0  0
   32.7700   34.3000   23.1400 H   0  0  0  0  0  0
   34.3700   34.1000   23.8700 H   0  0  0  0  0  0
   33.7900   40.5700   24.9700 H   0  0  0  0  0  0
   31.1500   38.3500   27.5000 C   0  0  0  0  0  0
   31.7100   39.1700   26.3300 C   0  0  0  0  0  0
   33.1500   38.7500   26.0100 C   0  0  2  0  0  0
   34.0500   38.8900   27.2500 C   0  0  0  0  0  0
   33.4900   38.0700   28.4200 C   0  0  0  0  0  0
   32.0400   38.4900   28.7400 C   0  0  2  0  0  0
   31.0800   37.2700   27.2100 H   0  0  0  0  0  0
   30.1100   38.6900   27.7400 H   0  0  0  0  0  0
   31.6800   40.2500   26.5800 H   0  0  0  0  0  0
   31.0600   39.0300   25.4200 H   0  0  0  0  0  0
   33.1700   37.6900   25.6500 H   0  0  0  0  0  0
   35.0900   38.5500   27.0100 H   0  0  0  0  0  0
   34.1100   39.9700   27.5400 H   0  0  0  0  0  0
   33.5200   36.9900   28.1700 H   0  0  0  0  0  0
   34.1300   38.2100   29.3300 H   0  0  0  0  0  0
   32.0300   39.5500   29.0900 H   0  0  0  0  0  0
   31.5400   37.6900   29.7900 O   0  0  0  0  0  0
   32.1000   37.7800   30.5600 H   0  0  0  0  0  0
   35.6600   35.1800   19.0100 O   0  0  0  0  0  0
   37.2600   38.0600   16.4500 C   0  0  0  0  0  0
   38.0700   37.4600   17.4300 C   0  0  0  0  0  0
   37.5300   36.4900   18.2900 C   0  0  0  0  0  0
   36.1900   36.1200   18.1700 C   0  0  0  0  0  0
   35.3700   36.7200   17.2000 C   0  0  0  0  0  0
   35.9100   37.6900   16.3400 C   0  0  0  0  0  0
   37.7700   38.9800   15.6300 F   0  0  0  0  0  0
   39.1300   37.7500   17.5200 H   0  0  0  0  0  0
   38.3100   35.9200   19.2100 F   0  0  0  0  0  0
   34.3100   36.4300   17.1100 H   0  0  0  0  0  0
   35.2700   38.1600   15.5700 H   0  0  0  0  0  0
  1  7  1  0  0  0
  1 10  2  0  0  0
  1 11  1  0  0  0
  2  9  1  0  0  0
  2 12  2  0  0  0
  2 13  1  0  0  0
  3  4  1  0  0  0
  3  5  2  0  0  0
  3  6  1  0  0  0
  4  7  2  0  0  0
  4 14  1  0  0  0
  5 11  1  0  0  0
  5 12  1  0  0  0
  6  9  2  0  0  0
  6 15  1  0  0  0
  7 38  1  0  0  0
  8 11  1  0  0  0
  8 16  1  0  0  0
  8 17  1  0  0  0
  8 18  1  0  0  0
 13 19  1  0  0  0
 13 22  1  0  0  0
 20 21  1  0  0  0
 20 25  1  0  0  0
 20 26  1  0  0  0
 20 27  1  0  0  0
 21 22  1  0  0  0
 21 28  1  0  0  0
 21 29  1  0  0  0
 22 23  1  0  0  0
 22 30  1  0  0  0
 23 24  1  0  0  0
 23 31  1  0  0  0
 23 32  1  0  0  0
 24 25  1  0  0  0
 24 33  1  0  0  0
 24 34  1  0  0  0
 25 35  1  0  0  0
 25 36  1  0  0  0
 36 37  1  0  0  0
 38 42  1  0  0  0
 39 40  1  0  0  0
 39 44  2  0  0  0
 39 45  1  0  0  0
 40 41  2  0  0  0
 40 46  1  0  0  0
 41 42  1  0  0  0
 41 47  1  0  0  0
 42 43  2  0  0  0
 43 44  1  0  0  0
 43 48  1  0  0  0
 44 49  1  0  0  0
M  END
> <s_m_entry_id>
6

> <s_m_entry_name>
lig_p38a_2ff.1

> <s_pdb_PDB_TITLE>
MX MODEL

> <i_pdb_PDB_Model>
1

> <r_pdb_PDB_CRYST1_a>
180.52

> <r_pdb_PDB_CRYST1_b>
135.86

> <r_pdb_PDB_CRYST1_c>
299.88

> <r_pdb_PDB_CRYST1_alpha>
90

> <r_pdb_PDB_CRYST1_beta>
90

> <r_pdb_PDB_CRYST1_gamma>
90

> <s_pdb_PDB_CRYST1_Space_Group>
P 1

> <i_pdb_PDB_CRYST1_z>
1

> <s_pdb_PDB_format_version>
3.0

> <s_m_Source_Path>
/users/home/dhahn3/projects/PLBenchmarks/PLBenchmarks/data/2019-12-09_p38/03_docked

> <s_m_Source_File>
lig_p38a_2ff.pdb

> <i_m_Source_File_Index>
1

$$$$
lig_p38a_2g
                    3D
 Structure written by MMmdl.
 46 49  0  0  1  0            999 V2000
   34.5500   34.9800   21.1800 C   0  0  0  0  0  0
   34.0400   38.9800   23.7400 C   0  0  0  0  0  0
   34.8000   37.8100   21.4400 C   0  0  0  0  0  0
   35.2500   37.1300   20.2300 C   0  0  0  0  0  0
   34.3100   37.0400   22.5100 C   0  0  0  0  0  0
   34.8500   39.2100   21.6200 C   0  0  0  0  0  0
   35.1700   35.7800   20.1300 C   0  0  0  0  0  0
   33.6700   34.8300   23.4600 C   0  0  0  0  0  0
   34.4800   39.7900   22.7800 N   0  0  0  0  0  0
   34.3300   33.7800   21.0200 O   0  0  0  0  0  0
   34.2100   35.6200   22.3400 N   0  0  0  0  0  0
   33.9300   37.6500   23.6600 N   0  0  0  0  0  0
   33.6700   39.5700   24.9300 N   0  0  0  0  0  0
   35.7000   37.7400   19.4700 H   0  0  0  0  0  0
   35.2200   39.8600   20.8400 H   0  0  0  0  0  0
   33.4000   35.4700   24.3000 H   0  0  0  0  0  0
   32.7700   34.3000   23.1400 H   0  0  0  0  0  0
   34.3700   34.1000   23.8700 H   0  0  0  0  0  0
   33.7900   40.5700   24.9700 H   0  0  0  0  0  0
   31.1300   38.3300   27.4800 C   0  0  0  0  0  0
   31.7000   39.1500   26.3100 C   0  0  0  0  0  0
   33.1500   38.7500   26.0100 C   0  0  0  0  0  0
   34.0300   38.9100   27.2600 C   0  0  0  0  0  0
   33.4700   38.1000   28.4300 C   0  0  0  0  0  0
   32.0100   38.4900   28.7300 O   0  0  0  0  0  0
   31.0900   37.2500   27.2000 H   0  0  0  0  0  0
   30.0900   38.6500   27.7100 H   0  0  0  0  0  0
   31.6500   40.2300   26.5500 H   0  0  0  0  0  0
   31.0600   38.9900   25.4000 H   0  0  0  0  0  0
   33.1900   37.6900   25.6600 H   0  0  0  0  0  0
   35.0800   38.5900   27.0300 H   0  0  0  0  0  0
   34.0800   39.9900   27.5400 H   0  0  0  0  0  0
   33.5200   37.0100   28.1900 H   0  0  0  0  0  0
   34.1000   38.2500   29.3400 H   0  0  0  0  0  0
   35.6600   35.1800   19.0100 O   0  0  0  0  0  0
   37.2600   38.0600   16.4500 C   0  0  0  0  0  0
   38.0400   37.5300   17.4900 C   0  0  0  0  0  0
   37.5100   36.5600   18.3500 C   0  0  0  0  0  0
   36.1900   36.1200   18.1700 C   0  0  0  0  0  0
   35.4000   36.6500   17.1300 C   0  0  0  0  0  0
   35.9400   37.6200   16.2700 C   0  0  0  0  0  0
   37.6800   38.8200   15.7800 H   0  0  0  0  0  0
   39.0800   37.8800   17.6300 H   0  0  0  0  0  0
   38.2500   36.0600   19.3400 F   0  0  0  0  0  0
   34.3700   36.3000   16.9900 H   0  0  0  0  0  0
   35.3300   38.0300   15.4600 H   0  0  0  0  0  0
  1  7  1  0  0  0
  1 10  2  0  0  0
  1 11  1  0  0  0
  2  9  1  0  0  0
  2 12  2  0  0  0
  2 13  1  0  0  0
  3  4  1  0  0  0
  3  5  2  0  0  0
  3  6  1  0  0  0
  4  7  2  0  0  0
  4 14  1  0  0  0
  5 11  1  0  0  0
  5 12  1  0  0  0
  6  9  2  0  0  0
  6 15  1  0  0  0
  7 35  1  0  0  0
  8 11  1  0  0  0
  8 16  1  0  0  0
  8 17  1  0  0  0
  8 18  1  0  0  0
 13 19  1  0  0  0
 13 22  1  0  0  0
 20 21  1  0  0  0
 20 25  1  0  0  0
 20 26  1  0  0  0
 20 27  1  0  0  0
 21 22  1  0  0  0
 21 28  1  0  0  0
 21 29  1  0  0  0
 22 23  1  0  0  0
 22 30  1  0  0  0
 23 24  1  0  0  0
 23 31  1  0  0  0
 23 32  1  0  0  0
 24 25  1  0  0  0
 24 33  1  0  0  0
 24 34  1  0  0  0
 35 39  1  0  0  0
 36 37  1  0  0  0
 36 41  2  0  0  0
 36 42  1  0  0  0
 37 38  2  0  0  0
 37 43  1  0  0  0
 38 39  1  0  0  0
 38 44  1  0  0  0
 39 40  2  0  0  0
 40 41  1  0  0  0
 40 45  1  0  0  0
 41 46  1  0  0  0
M  END
> <s_m_entry_id>
7

> <s_m_entry_name>
lig_p38a_2g.1

> <s_pdb_PDB_TITLE>
MX MODEL

> <i_pdb_PDB_Model>
1

> <r_pdb_PDB_CRYST1_a>
179.86

> <r_pdb_PDB_CRYST1_b>
135.86

> <r_pdb_PDB_CRYST1_c>
277.72

> <r_pdb_PDB_CRYST1_alpha>
90

> <r_pdb_PDB_CRYST1_beta>
90

> <r_pdb_PDB_CRYST1_gamma>
90

> <s_pdb_PDB_CRYST1_Space_Group>
P 1

> <i_pdb_PDB_CRYST1_z>
1

> <s_pdb_PDB_format_version>
3.0

> <s_m_Source_Path>
/users/home/dhahn3/projects/PLBenchmarks/PLBenchmarks/data/2019-12-09_p38/03_docked

> <s_m_Source_File>
lig_p38a_2g.pdb

> <i_m_Source_File_Index>
1

$$$$
lig_p38a_2gg
                    3D
 Structure written by MMmdl.
 48 51  0  0  1  0            999 V2000
   34.5500   34.9800   21.1800 C   0  0  0  0  0  0
   34.0400   38.9800   23.7400 C   0  0  0  0  0  0
   34.8000   37.8100   21.4400 C   0  0  0  0  0  0
   35.2500   37.1300   20.2300 C   0  0  0  0  0  0
   34.3100   37.0400   22.5100 C   0  0  0  0  0  0
   34.8500   39.2100   21.6200 C   0  0  0  0  0  0
   35.1700   35.7800   20.1300 C   0  0  0  0  0  0
   33.6700   34.8300   23.4600 C   0  0  0  0  0  0
   34.4800   39.7900   22.7800 N   0  0  0  0  0  0
   34.3300   33.7800   21.0200 O   0  0  0  0  0  0
   34.2100   35.6200   22.3400 N   0  0  0  0  0  0
   33.9300   37.6500   23.6600 N   0  0  0  0  0  0
   33.6700   39.5700   24.9300 N   0  0  0  0  0  0
   35.7000   37.7400   19.4700 H   0  0  0  0  0  0
   35.2200   39.8600   20.8400 H   0  0  0  0  0  0
   33.5700   35.4400   24.3600 H   0  0  0  0  0  0
   32.6800   34.4500   23.2000 H   0  0  0  0  0  0
   34.2900   33.9800   23.7500 H   0  0  0  0  0  0
   33.7900   40.5700   24.9700 H   0  0  0  0  0  0
   31.1500   38.3500   27.5000 C   0  0  0  0  0  0
   31.7100   39.1700   26.3300 C   0  0  0  0  0  0
   33.1500   38.7500   26.0100 C   0  0  0  0  0  0
   34.0500   38.8900   27.2500 C   0  0  0  0  0  0
   33.4900   38.0700   28.4200 C   0  0  0  0  0  0
   31.0800   37.2700   27.2100 H   0  0  0  0  0  0
   30.1100   38.6900   27.7400 H   0  0  0  0  0  0
   31.6800   40.2500   26.5800 H   0  0  0  0  0  0
   31.0600   39.0300   25.4200 H   0  0  0  0  0  0
   33.1700   37.6900   25.6500 H   0  0  0  0  0  0
   35.0900   38.5500   27.0100 H   0  0  0  0  0  0
   34.1100   39.9700   27.5400 H   0  0  0  0  0  0
   33.5200   36.9900   28.1700 H   0  0  0  0  0  0
   34.1300   38.2100   29.3300 H   0  0  0  0  0  0
   32.0400   38.4900   28.7600 S   0  0  0  0  0  0
   32.0600   39.9200   29.1400 O   0  0  0  0  0  0
   31.5200   37.5600   29.7900 O   0  0  0  0  0  0
   35.6600   35.1800   19.0100 O   0  0  0  0  0  0
   37.2600   38.0600   16.4500 C   0  0  0  0  0  0
   38.0600   37.5000   17.4700 C   0  0  0  0  0  0
   37.5200   36.5300   18.3300 C   0  0  0  0  0  0
   36.1900   36.1200   18.1700 C   0  0  0  0  0  0
   35.3900   36.6700   17.1600 C   0  0  0  0  0  0
   35.9300   37.6400   16.3000 C   0  0  0  0  0  0
   37.7700   38.9800   15.6300 F   0  0  0  0  0  0
   39.1000   37.8300   17.5900 H   0  0  0  0  0  0
   38.2700   36.0100   19.2900 F   0  0  0  0  0  0
   34.3400   36.3500   17.0400 H   0  0  0  0  0  0
   35.3000   38.0800   15.5000 H   0  0  0  0  0  0
  1  7  1  0  0  0
  1 10  2  0  0  0
  1 11  1  0  0  0
  2  9  1  0  0  0
  2 12  2  0  0  0
  2 13  1  0  0  0
  3  4  1  0  0  0
  3  5  2  0  0  0
  3  6  1  0  0  0
  4  7  2  0  0  0
  4 14  1  0  0  0
  5 11  1  0  0  0
  5 12  1  0  0  0
  6  9  2  0  0  0
  6 15  1  0  0  0
  7 37  1  0  0  0
  8 11  1  0  0  0
  8 16  1  0  0  0
  8 17  1  0  0  0
  8 18  1  0  0  0
 13 19  1  0  0  0
 13 22  1  0  0  0
 20 21  1  0  0  0
 20 25  1  0  0  0
 20 26  1  0  0  0
 20 34  1  0  0  0
 21 22  1  0  0  0
 21 27  1  0  0  0
 21 28  1  0  0  0
 22 23  1  0  0  0
 22 29  1  0  0  0
 23 24  1  0  0  0
 23 30  1  0  0  0
 23 31  1  0  0  0
 24 32  1  0  0  0
 24 33  1  0  0  0
 24 34  1  0  0  0
 34 35  2  0  0  0
 34 36  2  0  0  0
 37 41  1  0  0  0
 38 39  1  0  0  0
 38 43  2  0  0  0
 38 44  1  0  0  0
 39 40  2  0  0  0
 39 45  1  0  0  0
 40 41  1  0  0  0
 40 46  1  0  0  0
 41 42  2  0  0  0
 42 43  1  0  0  0
 42 47  1  0  0  0
 43 48  1  0  0  0
M  END
> <s_m_entry_id>
8

> <s_m_entry_name>
lig_p38a_2gg.1

> <s_pdb_PDB_TITLE>
MX MODEL

> <i_pdb_PDB_Model>
1

> <r_pdb_PDB_CRYST1_a>
179.9

> <r_pdb_PDB_CRYST1_b>
135.86

> <r_pdb_PDB_CRYST1_c>
285.84

> <r_pdb_PDB_CRYST1_alpha>
90

> <r_pdb_PDB_CRYST1_beta>
90

> <r_pdb_PDB_CRYST1_gamma>
90

> <s_pdb_PDB_CRYST1_Space_Group>
P 1

> <i_pdb_PDB_CRYST1_z>
1

> <s_pdb_PDB_format_version>
3.0

> <s_m_Source_Path>
/users/home/dhahn3/projects/PLBenchmarks/PLBenchmarks/data/2019-12-09_p38/03_docked

> <s_m_Source_File>
lig_p38a_2gg.pdb

> <i_m_Source_File_Index>
1

$$$$
lig_p38a_2h
                    3D
 Structure written by MMmdl.
 46 49  0  0  1  0            999 V2000
   34.5500   34.9800   21.1800 C   0  0  0  0  0  0
   34.0400   38.9800   23.7400 C   0  0  0  0  0  0
   34.8000   37.8100   21.4400 C   0  0  0  0  0  0
   35.2500   37.1300   20.2300 C   0  0  0  0  0  0
   34.3100   37.0400   22.5100 C   0  0  0  0  0  0
   34.8500   39.2100   21.6200 C   0  0  0  0  0  0
   35.1700   35.7800   20.1300 C   0  0  0  0  0  0
   33.6700   34.8300   23.4600 C   0  0  0  0  0  0
   34.4800   39.7900   22.7800 N   0  0  0  0  0  0
   34.3300   33.7800   21.0200 O   0  0  0  0  0  0
   34.2100   35.6200   22.3400 N   0  0  0  0  0  0
   33.9300   37.6500   23.6600 N   0  0  0  0  0  0
   33.6700   39.5700   24.9300 N   0  0  0  0  0  0
   35.7000   37.7400   19.4700 H   0  0  0  0  0  0
   35.2200   39.8600   20.8400 H   0  0  0  0  0  0
   33.4100   35.4700   24.3100 H   0  0  0  0  0  0
   32.7600   34.3100   23.1500 H   0  0  0  0  0  0
   34.3600   34.0900   23.8600 H   0  0  0  0  0  0
   33.7900   40.5700   24.9700 H   0  0  0  0  0  0
   31.1500   38.3500   27.5000 C   0  0  0  0  0  0
   31.7100   39.1700   26.3300 C   0  0  0  0  0  0
   33.1500   38.7500   26.0100 C   0  0  0  0  0  0
   34.0500   38.8900   27.2500 C   0  0  0  0  0  0
   33.4900   38.0700   28.4200 C   0  0  0  0  0  0
   32.0400   38.4900   28.7400 O   0  0  0  0  0  0
   31.0800   37.2700   27.2100 H   0  0  0  0  0  0
   30.1100   38.6900   27.7400 H   0  0  0  0  0  0
   31.6800   40.2500   26.5800 H   0  0  0  0  0  0
   31.0600   39.0300   25.4200 H   0  0  0  0  0  0
   33.1700   37.6900   25.6500 H   0  0  0  0  0  0
   35.0900   38.5500   27.0100 H   0  0  0  0  0  0
   34.1100   39.9700   27.5400 H   0  0  0  0  0  0
   33.5200   36.9900   28.1700 H   0  0  0  0  0  0
   34.1300   38.2100   29.3300 H   0  0  0  0  0  0
   35.7900   35.0200   18.7200 S   0  0  0  0  0  0
   37.5300   38.1500   15.9400 C   0  0  0  0  0  0
   36.1700   37.7900   15.8400 C   0  0  0  0  0  0
   35.6300   36.8200   16.7000 C   0  0  0  0  0  0
   36.4500   36.2000   17.6600 C   0  0  0  0  0  0
   37.8100   36.5500   17.7600 C   0  0  0  0  0  0
   38.3500   37.5300   16.9000 C   0  0  0  0  0  0
   37.9500   38.9100   15.2700 H   0  0  0  0  0  0
   35.5300   38.2800   15.0900 H   0  0  0  0  0  0
   34.5700   36.5500   16.6300 H   0  0  0  0  0  0
   38.5800   35.9700   18.6700 F   0  0  0  0  0  0
   39.4100   37.8000   16.9800 H   0  0  0  0  0  0
  1  7  1  0  0  0
  1 10  2  0  0  0
  1 11  1  0  0  0
  2  9  1  0  0  0
  2 12  2  0  0  0
  2 13  1  0  0  0
  3  4  1  0  0  0
  3  5  2  0  0  0
  3  6  1  0  0  0
  4  7  2  0  0  0
  4 14  1  0  0  0
  5 11  1  0  0  0
  5 12  1  0  0  0
  6  9  2  0  0  0
  6 15  1  0  0  0
  7 35  1  0  0  0
  8 11  1  0  0  0
  8 16  1  0  0  0
  8 17  1  0  0  0
  8 18  1  0  0  0
 13 19  1  0  0  0
 13 22  1  0  0  0
 20 21  1  0  0  0
 20 25  1  0  0  0
 20 26  1  0  0  0
 20 27  1  0  0  0
 21 22  1  0  0  0
 21 28  1  0  0  0
 21 29  1  0  0  0
 22 23  1  0  0  0
 22 30  1  0  0  0
 23 24  1  0  0  0
 23 31  1  0  0  0
 23 32  1  0  0  0
 24 25  1  0  0  0
 24 33  1  0  0  0
 24 34  1  0  0  0
 35 39  1  0  0  0
 36 37  1  0  0  0
 36 41  2  0  0  0
 36 42  1  0  0  0
 37 38  2  0  0  0
 37 43  1  0  0  0
 38 39  1  0  0  0
 38 44  1  0  0  0
 39 40  2  0  0  0
 40 41  1  0  0  0
 40 45  1  0  0  0
 41 46  1  0  0  0
M  END
> <s_m_entry_id>
9

> <s_m_entry_name>
lig_p38a_2h.1

> <s_pdb_PDB_TITLE>
MX MODEL

> <i_pdb_PDB_Model>
1

> <r_pdb_PDB_CRYST1_a>
186.08

> <r_pdb_PDB_CRYST1_b>
135.86

> <r_pdb_PDB_CRYST1_c>
284.72

> <r_pdb_PDB_CRYST1_alpha>
90

> <r_pdb_PDB_CRYST1_beta>
90

> <r_pdb_PDB_CRYST1_gamma>
90

> <s_pdb_PDB_CRYST1_Space_Group>
P 1

> <i_pdb_PDB_CRYST1_z>
1

> <s_pdb_PDB_format_version>
3.0

> <s_m_Source_Path>
/users/home/dhahn3/projects/PLBenchmarks/PLBenchmarks/data/2019-12-09_p38/03_docked

> <s_m_Source_File>
lig_p38a_2h.pdb

> <i_m_Source_File_Index>
1

$$$$
lig_p38a_2i
                    3D
 Structure written by MMmdl.
 48 51  0  0  1  0            999 V2000
   38.4300   36.3900   16.6800 C   0  0  0  0  0  0
   34.5500   34.9800   21.1800 C   0  0  0  0  0  0
   37.7900   35.8500   17.8200 C   0  0  0  0  0  0
   34.0400   38.9800   23.7400 C   0  0  0  0  0  0
   34.8000   37.8100   21.4400 C   0  0  0  0  0  0
   35.2500   37.1300   20.2300 C   0  0  0  0  0  0
   37.6800   36.7500   15.5500 C   0  0  0  0  0  0
   36.2900   36.5500   15.5400 C   0  0  0  0  0  0
   35.6500   35.9900   16.6600 C   0  0  0  0  0  0
   34.3100   37.0400   22.5100 C   0  0  0  0  0  0
   34.8500   39.2100   21.6200 C   0  0  0  0  0  0
   35.1700   35.7800   20.1300 C   0  0  0  0  0  0
   36.4000   35.6600   17.8100 C   0  0  0  0  0  0
   33.6700   34.8300   23.4600 C   0  0  0  0  0  0
   38.5100   35.5500   18.9000 F   0  0  0  0  0  0
   35.6900   35.0000   18.9600 C   0  0  0  0  0  0
   34.4800   39.7900   22.7800 N   0  0  0  0  0  0
   34.3300   33.7800   21.0200 O   0  0  0  0  0  0
   34.2100   35.6200   22.3400 N   0  0  0  0  0  0
   33.9300   37.6500   23.6600 N   0  0  0  0  0  0
   33.6700   39.5700   24.9300 N   0  0  0  0  0  0
   39.5000   36.5400   16.6800 H   0  0  0  0  0  0
   35.7000   37.7400   19.4700 H   0  0  0  0  0  0
   35.7100   36.8200   14.6700 H   0  0  0  0  0  0
   34.5900   35.8100   16.6400 H   0  0  0  0  0  0
   35.2200   39.8600   20.8400 H   0  0  0  0  0  0
   33.4400   35.4700   24.3200 H   0  0  0  0  0  0
   32.7400   34.3400   23.1600 H   0  0  0  0  0  0
   34.3500   34.0600   23.8400 H   0  0  0  0  0  0
   33.7900   40.5700   24.9700 H   0  0  0  0  0  0
   38.1600   37.1900   14.6900 H   0  0  0  0  0  0
   36.4300   34.2800   19.3100 H   0  0  0  0  0  0
   34.8700   34.4700   18.4700 H   0  0  0  0  0  0
   31.1500   38.3500   27.5000 C   0  0  0  0  0  0
   31.7100   39.1700   26.3300 C   0  0  0  0  0  0
   33.1500   38.7500   26.0100 C   0  0  0  0  0  0
   34.0500   38.8900   27.2500 C   0  0  0  0  0  0
   33.4900   38.0700   28.4200 C   0  0  0  0  0  0
   32.0400   38.4900   28.7400 O   0  0  0  0  0  0
   31.0800   37.2700   27.2100 H   0  0  0  0  0  0
   30.1100   38.6900   27.7400 H   0  0  0  0  0  0
   31.6800   40.2500   26.5800 H   0  0  0  0  0  0
   31.0600   39.0300   25.4200 H   0  0  0  0  0  0
   33.1700   37.6900   25.6500 H   0  0  0  0  0  0
   35.0900   38.5500   27.0100 H   0  0  0  0  0  0
   34.1100   39.9700   27.5400 H   0  0  0  0  0  0
   33.5200   36.9900   28.1700 H   0  0  0  0  0  0
   34.1300   38.2100   29.3300 H   0  0  0  0  0  0
  1  3  1  0  0  0
  1  7  2  0  0  0
  1 22  1  0  0  0
  2 12  1  0  0  0
  2 18  2  0  0  0
  2 19  1  0  0  0
  3 13  2  0  0  0
  3 15  1  0  0  0
  4 17  1  0  0  0
  4 20  2  0  0  0
  4 21  1  0  0  0
  5  6  1  0  0  0
  5 10  2  0  0  0
  5 11  1  0  0  0
  6 12  2  0  0  0
  6 23  1  0  0  0
  7  8  1  0  0  0
  7 31  1  0  0  0
  8  9  2  0  0  0
  8 24  1  0  0  0
  9 13  1  0  0  0
  9 25  1  0  0  0
 10 19  1  0  0  0
 10 20  1  0  0  0
 11 17  2  0  0  0
 11 26  1  0  0  0
 12 16  1  0  0  0
 13 16  1  0  0  0
 14 19  1  0  0  0
 14 27  1  0  0  0
 14 28  1  0  0  0
 14 29  1  0  0  0
 16 32  1  0  0  0
 16 33  1  0  0  0
 21 30  1  0  0  0
 21 36  1  0  0  0
 34 35  1  0  0  0
 34 39  1  0  0  0
 34 40  1  0  0  0
 34 41  1  0  0  0
 35 36  1  0  0  0
 35 42  1  0  0  0
 35 43  1  0  0  0
 36 37  1  0  0  0
 36 44  1  0  0  0
 37 38  1  0  0  0
 37 45  1  0  0  0
 37 46  1  0  0  0
 38 39  1  0  0  0
 38 47  1  0  0  0
 38 48  1  0  0  0
M  END
> <s_m_entry_id>
10

> <s_m_entry_name>
lig_p38a_2i.1

> <s_pdb_PDB_TITLE>
MX MODEL

> <i_pdb_PDB_Model>
1

> <r_pdb_PDB_CRYST1_a>
187.84

> <r_pdb_PDB_CRYST1_b>
135.86

> <r_pdb_PDB_CRYST1_c>
293.16

> <r_pdb_PDB_CRYST1_alpha>
90

> <r_pdb_PDB_CRYST1_beta>
90

> <r_pdb_PDB_CRYST1_gamma>
90

> <s_pdb_PDB_CRYST1_Space_Group>
P 1

> <i_pdb_PDB_CRYST1_z>
1

> <s_pdb_PDB_format_version>
3.0

> <s_m_Source_Path>
/users/home/dhahn3/projects/PLBenchmarks/PLBenchmarks/data/2019-12-09_p38/03_docked

> <s_m_Source_File>
lig_p38a_2i.pdb

> <i_m_Source_File_Index>
1

$$$$
lig_p38a_2j
                    3D
 Structure written by MMmdl.
 48 51  0  0  1  0            999 V2000
   38.4400   36.3400   16.6500 C   0  0  0  0  0  0
   34.5500   34.9800   21.1800 C   0  0  0  0  0  0
   37.8000   35.8000   17.7900 C   0  0  0  0  0  0
   34.0400   38.9800   23.7400 C   0  0  0  0  0  0
   34.8000   37.8100   21.4400 C   0  0  0  0  0  0
   35.2500   37.1300   20.2300 C   0  0  0  0  0  0
   36.2700   36.6100   15.5600 C   0  0  0  0  0  0
   35.6400   36.0500   16.6900 C   0  0  0  0  0  0
   34.3100   37.0400   22.5100 C   0  0  0  0  0  0
   34.8500   39.2100   21.6200 C   0  0  0  0  0  0
   35.1700   35.7800   20.1300 C   0  0  0  0  0  0
   36.4000   35.6600   17.8100 C   0  0  0  0  0  0
   33.6700   34.8300   23.4600 C   0  0  0  0  0  0
   38.5300   35.4400   18.8400 F   0  0  0  0  0  0
   35.6900   35.0000   18.9600 C   0  0  0  0  0  0
   34.4800   39.7900   22.7800 N   0  0  0  0  0  0
   34.3300   33.7800   21.0200 O   0  0  0  0  0  0
   34.2100   35.6200   22.3400 N   0  0  0  0  0  0
   33.9300   37.6500   23.6600 N   0  0  0  0  0  0
   33.6700   39.5700   24.9300 N   0  0  0  0  0  0
   39.5100   36.4500   16.6300 H   0  0  0  0  0  0
   35.7000   37.7400   19.4700 H   0  0  0  0  0  0
   35.6800   36.9200   14.7100 H   0  0  0  0  0  0
   34.5700   35.9100   16.6900 H   0  0  0  0  0  0
   35.2200   39.8600   20.8400 H   0  0  0  0  0  0
   33.4400   35.4700   24.3200 H   0  0  0  0  0  0
   32.7400   34.3400   23.1600 H   0  0  0  0  0  0
   34.3500   34.0600   23.8400 H   0  0  0  0  0  0
   33.7900   40.5700   24.9700 H   0  0  0  0  0  0
   36.4300   34.2800   19.3100 H   0  0  0  0  0  0
   34.8700   34.4700   18.4700 H   0  0  0  0  0  0
   37.7000   36.7900   15.4900 C   0  0  0  0  0  0
   38.3000   37.3200   14.4300 F   0  0  0  0  0  0
   31.1300   38.3300   27.4800 C   0  0  0  0  0  0
   31.7000   39.1500   26.3100 C   0  0  0  0  0  0
   33.1500   38.7500   26.0100 C   0  0  0  0  0  0
   34.0300   38.9100   27.2600 C   0  0  0  0  0  0
   33.4700   38.1000   28.4300 C   0  0  0  0  0  0
   32.0100   38.4900   28.7300 O   0  0  0  0  0  0
   31.6500   40.2300   26.5500 H   0  0  0  0  0  0
   31.0600   38.9900   25.4000 H   0  0  0  0  0  0
   33.1900   37.6900   25.6600 H   0  0  0  0  0  0
   35.0800   38.5900   27.0300 H   0  0  0  0  0  0
   34.0800   39.9900   27.5400 H   0  0  0  0  0  0
   33.5200   37.0100   28.1900 H   0  0  0  0  0  0
   34.1000   38.2500   29.3400 H   0  0  0  0  0  0
   31.0900   37.2800   27.2000 H   0  0  0  0  0  0
   30.1200   38.6600   27.7000 H   0  0  0  0  0  0
  1  3  1  0  0  0
  1 21  1  0  0  0
  1 32  2  0  0  0
  2 11  1  0  0  0
  2 17  2  0  0  0
  2 18  1  0  0  0
  3 12  2  0  0  0
  3 14  1  0  0  0
  4 16  1  0  0  0
  4 19  2  0  0  0
  4 20  1  0  0  0
  5  6  1  0  0  0
  5  9  2  0  0  0
  5 10  1  0  0  0
  6 11  2  0  0  0
  6 22  1  0  0  0
  7  8  2  0  0  0
  7 23  1  0  0  0
  7 32  1  0  0  0
  8 12  1  0  0  0
  8 24  1  0  0  0
  9 18  1  0  0  0
  9 19  1  0  0  0
 10 16  2  0  0  0
 10 25  1  0  0  0
 11 15  1  0  0  0
 12 15  1  0  0  0
 13 18  1  0  0  0
 13 26  1  0  0  0
 13 27  1  0  0  0
 13 28  1  0  0  0
 15 30  1  0  0  0
 15 31  1  0  0  0
 20 29  1  0  0  0
 20 36  1  0  0  0
 32 33  1  0  0  0
 34 35  1  0  0  0
 34 39  1  0  0  0
 34 47  1  0  0  0
 34 48  1  0  0  0
 35 36  1  0  0  0
 35 40  1  0  0  0
 35 41  1  0  0  0
 36 37  1  0  0  0
 36 42  1  0  0  0
 37 38  1  0  0  0
 37 43  1  0  0  0
 37 44  1  0  0  0
 38 39  1  0  0  0
 38 45  1  0  0  0
 38 46  1  0  0  0
M  END
> <s_m_entry_id>
11

> <s_m_entry_name>
lig_p38a_2j.1

> <s_pdb_PDB_TITLE>
MX MODEL

> <i_pdb_PDB_Model>
1

> <r_pdb_PDB_CRYST1_a>
187.72

> <r_pdb_PDB_CRYST1_b>
135.86

> <r_pdb_PDB_CRYST1_c>
298.32

> <r_pdb_PDB_CRYST1_alpha>
90

> <r_pdb_PDB_CRYST1_beta>
90

> <r_pdb_PDB_CRYST1_gamma>
90

> <s_pdb_PDB_CRYST1_Space_Group>
P 1

> <i_pdb_PDB_CRYST1_z>
1

> <s_pdb_PDB_format_version>
3.0

> <s_m_Source_Path>
/users/home/dhahn3/projects/PLBenchmarks/PLBenchmarks/data/2019-12-09_p38/03_docked

> <s_m_Source_File>
lig_p38a_2j.pdb

> <i_m_Source_File_Index>
1

$$$$
lig_p38a_2k
                    3D
 Structure written by MMmdl.
 43 46  0  0  1  0            999 V2000
   34.5500   34.9800   21.1800 C   0  0  0  0  0  0
   34.0400   38.9800   23.7400 C   0  0  0  0  0  0
   34.8000   37.8100   21.4400 C   0  0  0  0  0  0
   35.2500   37.1300   20.2300 C   0  0  0  0  0  0
   34.3100   37.0400   22.5100 C   0  0  0  0  0  0
   34.8500   39.2100   21.6200 C   0  0  0  0  0  0
   35.1700   35.7800   20.1300 C   0  0  0  0  0  0
   33.8400   35.0800   23.1100 H   0  0  0  0  0  0
   34.4800   39.7900   22.7800 N   0  0  0  0  0  0
   34.3300   33.7800   21.0200 O   0  0  0  0  0  0
   34.2100   35.6200   22.3400 N   0  0  0  0  0  0
   33.9300   37.6500   23.6600 N   0  0  0  0  0  0
   33.6700   39.5700   24.9300 N   0  0  0  0  0  0
   35.7000   37.7400   19.4700 H   0  0  0  0  0  0
   35.2200   39.8600   20.8400 H   0  0  0  0  0  0
   33.7900   40.5700   24.9700 H   0  0  0  0  0  0
   31.1200   38.3100   27.4600 C   0  0  0  0  0  0
   31.6800   39.1200   26.2900 C   0  0  0  0  0  0
   33.1500   38.7500   26.0100 C   0  0  0  0  0  0
   34.0100   38.9400   27.2700 C   0  0  0  0  0  0
   33.4500   38.1200   28.4400 C   0  0  0  0  0  0
   31.9900   38.4900   28.7200 O   0  0  0  0  0  0
   31.1000   37.2300   27.1800 H   0  0  0  0  0  0
   30.0700   38.6200   27.6700 H   0  0  0  0  0  0
   31.6200   40.2100   26.5200 H   0  0  0  0  0  0
   31.0700   38.9500   25.3700 H   0  0  0  0  0  0
   33.2100   37.6900   25.6700 H   0  0  0  0  0  0
   35.0700   38.6300   27.0600 H   0  0  0  0  0  0
   34.0400   40.0200   27.5400 H   0  0  0  0  0  0
   33.5200   37.0300   28.2000 H   0  0  0  0  0  0
   34.0700   38.2900   29.3600 H   0  0  0  0  0  0
   35.6600   35.1800   19.0100 O   0  0  0  0  0  0
   37.2600   38.0600   16.4500 C   0  0  0  0  0  0
   38.0800   37.4500   17.4200 C   0  0  0  0  0  0
   37.5400   36.4800   18.2800 C   0  0  0  0  0  0
   36.1900   36.1200   18.1700 C   0  0  0  0  0  0
   35.3700   36.7300   17.2100 C   0  0  0  0  0  0
   35.9100   37.7000   16.3500 C   0  0  0  0  0  0
   37.7700   38.9800   15.6300 F   0  0  0  0  0  0
   39.1400   37.7300   17.5000 H   0  0  0  0  0  0
   38.3100   35.9000   19.2000 F   0  0  0  0  0  0
   34.3100   36.4400   17.1200 H   0  0  0  0  0  0
   35.2700   38.1800   15.5900 H   0  0  0  0  0  0
  1  7  1  0  0  0
  1 10  2  0  0  0
  1 11  1  0  0  0
  2  9  1  0  0  0
  2 12  2  0  0  0
  2 13  1  0  0  0
  3  4  1  0  0  0
  3  5  2  0  0  0
  3  6  1  0  0  0
  4  7  2  0  0  0
  4 14  1  0  0  0
  5 11  1  0  0  0
  5 12  1  0  0  0
  6  9  2  0  0  0
  6 15  1  0  0  0
  7 32  1  0  0  0
  8 11  1  0  0  0
 13 16  1  0  0  0
 13 19  1  0  0  0
 17 18  1  0  0  0
 17 22  1  0  0  0
 17 23  1  0  0  0
 17 24  1  0  0  0
 18 19  1  0  0  0
 18 25  1  0  0  0
 18 26  1  0  0  0
 19 20  1  0  0  0
 19 27  1  0  0  0
 20 21  1  0  0  0
 20 28  1  0  0  0
 20 29  1  0  0  0
 21 22  1  0  0  0
 21 30  1  0  0  0
 21 31  1  0  0  0
 32 36  1  0  0  0
 33 34  1  0  0  0
 33 38  2  0  0  0
 33 39  1  0  0  0
 34 35  2  0  0  0
 34 40  1  0  0  0
 35 36  1  0  0  0
 35 41  1  0  0  0
 36 37  2  0  0  0
 37 38  1  0  0  0
 37 42  1  0  0  0
 38 43  1  0  0  0
M  END
> <s_m_entry_id>
12

> <s_m_entry_name>
lig_p38a_2k.1

> <s_pdb_PDB_TITLE>
MX MODEL

> <i_pdb_PDB_Model>
1

> <r_pdb_PDB_CRYST1_a>
181.38

> <r_pdb_PDB_CRYST1_b>
135.86

> <r_pdb_PDB_CRYST1_c>
275.42

> <r_pdb_PDB_CRYST1_alpha>
90

> <r_pdb_PDB_CRYST1_beta>
90

> <r_pdb_PDB_CRYST1_gamma>
90

> <s_pdb_PDB_CRYST1_Space_Group>
P 1

> <i_pdb_PDB_CRYST1_z>
1

> <s_pdb_PDB_format_version>
3.0

> <s_m_Source_Path>
/users/home/dhahn3/projects/PLBenchmarks/PLBenchmarks/data/2019-12-09_p38/03_docked

> <s_m_Source_File>
lig_p38a_2k.pdb

> <i_m_Source_File_Index>
1

$$$$
lig_p38a_2l
                    3D
 Structure written by MMmdl.
 49 52  0  0  1  0            999 V2000
   34.5500   34.9800   21.1800 C   0  0  0  0  0  0
   34.0400   38.9800   23.7400 C   0  0  0  0  0  0
   34.8000   37.8100   21.4400 C   0  0  0  0  0  0
   35.2500   37.1300   20.2300 C   0  0  0  0  0  0
   34.3100   37.0400   22.5100 C   0  0  0  0  0  0
   34.8500   39.2100   21.6200 C   0  0  0  0  0  0
   35.1700   35.7800   20.1300 C   0  0  0  0  0  0
   34.4800   39.7900   22.7800 N   0  0  0  0  0  0
   34.3300   33.7800   21.0200 O   0  0  0  0  0  0
   34.2100   35.6200   22.3400 N   0  0  0  0  0  0
   33.9300   37.6500   23.6600 N   0  0  0  0  0  0
   33.6700   39.5700   24.9300 N   0  0  0  0  0  0
   35.7000   37.7400   19.4700 H   0  0  0  0  0  0
   35.2200   39.8600   20.8400 H   0  0  0  0  0  0
   33.7900   40.5700   24.9700 H   0  0  0  0  0  0
   33.6800   34.8400   23.4400 C   0  0  0  0  0  0
   33.4600   35.5200   24.3100 H   0  0  0  0  0  0
   32.7300   34.3400   23.1200 H   0  0  0  0  0  0
   34.7000   33.7900   23.8700 C   0  0  0  0  0  0
   34.9100   33.1100   23.0100 H   0  0  0  0  0  0
   35.6400   34.3000   24.1900 H   0  0  0  0  0  0
   34.2800   33.1900   24.7200 H   0  0  0  0  0  0
   31.1300   38.3300   27.4800 C   0  0  0  0  0  0
   31.7000   39.1500   26.3100 C   0  0  0  0  0  0
   33.1500   38.7500   26.0100 C   0  0  0  0  0  0
   34.0300   38.9100   27.2600 C   0  0  0  0  0  0
   33.4700   38.1000   28.4300 C   0  0  0  0  0  0
   32.0100   38.4900   28.7300 O   0  0  0  0  0  0
   31.0900   37.2500   27.2000 H   0  0  0  0  0  0
   30.0900   38.6500   27.7100 H   0  0  0  0  0  0
   31.6500   40.2300   26.5500 H   0  0  0  0  0  0
   31.0600   38.9900   25.4000 H   0  0  0  0  0  0
   33.1900   37.6900   25.6600 H   0  0  0  0  0  0
   35.0800   38.5900   27.0300 H   0  0  0  0  0  0
   34.0800   39.9900   27.5400 H   0  0  0  0  0  0
   33.5200   37.0100   28.1900 H   0  0  0  0  0  0
   34.1000   38.2500   29.3400 H   0  0  0  0  0  0
   35.6600   35.1800   19.0100 O   0  0  0  0  0  0
   37.2600   38.0600   16.4500 C   0  0  0  0  0  0
   38.0700   37.4600   17.4300 C   0  0  0  0  0  0
   37.5300   36.4900   18.2900 C   0  0  0  0  0  0
   36.1900   36.1200   18.1700 C   0  0  0  0  0  0
   35.3700   36.7200   17.2000 C   0  0  0  0  0  0
   35.9100   37.6900   16.3400 C   0  0  0  0  0  0
   37.7700   38.9800   15.6300 F   0  0  0  0  0  0
   39.1300   37.7500   17.5200 H   0  0  0  0  0  0
   38.3100   35.9200   19.2100 F   0  0  0  0  0  0
   34.3100   36.4300   17.1100 H   0  0  0  0  0  0
   35.2700   38.1600   15.5700 H   0  0  0  0  0  0
  1  7  1  0  0  0
  1  9  2  0  0  0
  1 10  1  0  0  0
  2  8  1  0  0  0
  2 11  2  0  0  0
  2 12  1  0  0  0
  3  4  1  0  0  0
  3  5  2  0  0  0
  3  6  1  0  0  0
  4  7  2  0  0  0
  4 13  1  0  0  0
  5 10  1  0  0  0
  5 11  1  0  0  0
  6  8  2  0  0  0
  6 14  1  0  0  0
  7 38  1  0  0  0
 10 16  1  0  0  0
 12 15  1  0  0  0
 12 25  1  0  0  0
 16 17  1  0  0  0
 16 18  1  0  0  0
 16 19  1  0  0  0
 19 20  1  0  0  0
 19 21  1  0  0  0
 19 22  1  0  0  0
 23 24  1  0  0  0
 23 28  1  0  0  0
 23 29  1  0  0  0
 23 30  1  0  0  0
 24 25  1  0  0  0
 24 31  1  0  0  0
 24 32  1  0  0  0
 25 26  1  0  0  0
 25 33  1  0  0  0
 26 27  1  0  0  0
 26 34  1  0  0  0
 26 35  1  0  0  0
 27 28  1  0  0  0
 27 36  1  0  0  0
 27 37  1  0  0  0
 38 42  1  0  0  0
 39 40  1  0  0  0
 39 44  2  0  0  0
 39 45  1  0  0  0
 40 41  2  0  0  0
 40 46  1  0  0  0
 41 42  1  0  0  0
 41 47  1  0  0  0
 42 43  2  0  0  0
 43 44  1  0  0  0
 43 48  1  0  0  0
 44 49  1  0  0  0
M  END
> <s_m_entry_id>
13

> <s_m_entry_name>
lig_p38a_2l.1

> <s_pdb_PDB_TITLE>
MX MODEL

> <i_pdb_PDB_Model>
1

> <r_pdb_PDB_CRYST1_a>
180.9

> <r_pdb_PDB_CRYST1_b>
149.14

> <r_pdb_PDB_CRYST1_c>
275.42

> <r_pdb_PDB_CRYST1_alpha>
90

> <r_pdb_PDB_CRYST1_beta>
90

> <r_pdb_PDB_CRYST1_gamma>
90

> <s_pdb_PDB_CRYST1_Space_Group>
P 1

> <i_pdb_PDB_CRYST1_z>
1

> <s_pdb_PDB_format_version>
3.0

> <s_m_Source_Path>
/users/home/dhahn3/projects/PLBenchmarks/PLBenchmarks/data/2019-12-09_p38/03_docked

> <s_m_Source_File>
lig_p38a_2l.pdb

> <i_m_Source_File_Index>
1

$$$$
lig_p38a_2m
                    3D
 Structure written by MMmdl.
 50 54  0  0  1  0            999 V2000
   34.5500   34.9800   21.1800 C   0  0  0  0  0  0
   34.0400   38.9800   23.7400 C   0  0  0  0  0  0
   34.8000   37.8100   21.4400 C   0  0  0  0  0  0
   35.2500   37.1300   20.2300 C   0  0  0  0  0  0
   34.3100   37.0400   22.5100 C   0  0  0  0  0  0
   34.8500   39.2100   21.6200 C   0  0  0  0  0  0
   35.1700   35.7800   20.1300 C   0  0  0  0  0  0
   34.4800   39.7900   22.7800 N   0  0  0  0  0  0
   34.3300   33.7800   21.0200 O   0  0  0  0  0  0
   34.2100   35.6200   22.3400 N   0  0  0  0  0  0
   33.9300   37.6500   23.6600 N   0  0  0  0  0  0
   33.6700   39.5700   24.9300 N   0  0  0  0  0  0
   35.7000   37.7400   19.4700 H   0  0  0  0  0  0
   35.2200   39.8600   20.8400 H   0  0  0  0  0  0
   33.7900   40.5700   24.9700 H   0  0  0  0  0  0
   33.6800   34.8400   23.4400 C   0  0  0  0  0  0
   34.1500   33.4200   23.5400 C   0  0  0  0  0  0
   32.7500   33.7200   23.0700 C   0  0  0  0  0  0
   33.4600   35.3500   24.4100 H   0  0  0  0  0  0
   34.8700   33.0900   22.7500 H   0  0  0  0  0  0
   34.2400   33.0000   24.5700 H   0  0  0  0  0  0
   32.5600   33.5900   21.9800 H   0  0  0  0  0  0
   31.9300   33.5000   23.8000 H   0  0  0  0  0  0
   31.1300   38.3200   27.4700 C   0  0  0  0  0  0
   31.6900   39.1300   26.3000 C   0  0  0  0  0  0
   33.1500   38.7500   26.0100 C   0  0  0  0  0  0
   34.0200   38.9200   27.2600 C   0  0  0  0  0  0
   33.4600   38.1100   28.4400 C   0  0  0  0  0  0
   32.0000   38.4900   28.7300 O   0  0  0  0  0  0
   31.0900   37.2400   27.1900 H   0  0  0  0  0  0
   30.0800   38.6300   27.6900 H   0  0  0  0  0  0
   31.6300   40.2200   26.5400 H   0  0  0  0  0  0
   31.0700   38.9700   25.3800 H   0  0  0  0  0  0
   33.2000   37.6900   25.6700 H   0  0  0  0  0  0
   35.0700   38.6100   27.0400 H   0  0  0  0  0  0
   34.0600   40.0000   27.5400 H   0  0  0  0  0  0
   33.5200   37.0200   28.1900 H   0  0  0  0  0  0
   34.0900   38.2700   29.3500 H   0  0  0  0  0  0
   35.6600   35.1800   19.0100 O   0  0  0  0  0  0
   37.2600   38.0600   16.4500 C   0  0  0  0  0  0
   38.0700   37.4700   17.4400 C   0  0  0  0  0  0
   37.5300   36.4900   18.3000 C   0  0  0  0  0  0
   36.1900   36.1200   18.1700 C   0  0  0  0  0  0
   35.3800   36.7100   17.1900 C   0  0  0  0  0  0
   35.9100   37.6800   16.3300 C   0  0  0  0  0  0
   37.7700   38.9800   15.6300 F   0  0  0  0  0  0
   39.1300   37.7600   17.5300 H   0  0  0  0  0  0
   38.3000   35.9300   19.2300 F   0  0  0  0  0  0
   34.3200   36.4100   17.0900 H   0  0  0  0  0  0
   35.2800   38.1400   15.5600 H   0  0  0  0  0  0
  1  7  1  0  0  0
  1  9  2  0  0  0
  1 10  1  0  0  0
  2  8  1  0  0  0
  2 11  2  0  0  0
  2 12  1  0  0  0
  3  4  1  0  0  0
  3  5  2  0  0  0
  3  6  1  0  0  0
  4  7  2  0  0  0
  4 13  1  0  0  0
  5 10  1  0  0  0
  5 11  1  0  0  0
  6  8  2  0  0  0
  6 14  1  0  0  0
  7 39  1  0  0  0
 10 16  1  0  0  0
 12 15  1  0  0  0
 12 26  1  0  0  0
 16 17  1  0  0  0
 16 18  1  0  0  0
 16 19  1  0  0  0
 17 18  1  0  0  0
 17 20  1  0  0  0
 17 21  1  0  0  0
 18 22  1  0  0  0
 18 23  1  0  0  0
 24 25  1  0  0  0
 24 29  1  0  0  0
 24 30  1  0  0  0
 24 31  1  0  0  0
 25 26  1  0  0  0
 25 32  1  0  0  0
 25 33  1  0  0  0
 26 27  1  0  0  0
 26 34  1  0  0  0
 27 28  1  0  0  0
 27 35  1  0  0  0
 27 36  1  0  0  0
 28 29  1  0  0  0
 28 37  1  0  0  0
 28 38  1  0  0  0
 39 43  1  0  0  0
 40 41  1  0  0  0
 40 45  2  0  0  0
 40 46  1  0  0  0
 41 42  2  0  0  0
 41 47  1  0  0  0
 42 43  1  0  0  0
 42 48  1  0  0  0
 43 44  2  0  0  0
 44 45  1  0  0  0
 44 49  1  0  0  0
 45 50  1  0  0  0
M  END
> <s_m_entry_id>
14

> <s_m_entry_name>
lig_p38a_2m.1

> <s_pdb_PDB_TITLE>
MX MODEL

> <i_pdb_PDB_Model>
1

> <r_pdb_PDB_CRYST1_a>
180.98

> <r_pdb_PDB_CRYST1_b>
151.4

> <r_pdb_PDB_CRYST1_c>
275.86

> <r_pdb_PDB_CRYST1_alpha>
90

> <r_pdb_PDB_CRYST1_beta>
90

> <r_pdb_PDB_CRYST1_gamma>
90

> <s_pdb_PDB_CRYST1_Space_Group>
P 1

> <i_pdb_PDB_CRYST1_z>
1

> <s_pdb_PDB_format_version>
3.0

> <s_m_Source_Path>
/users/home/dhahn3/projects/PLBenchmarks/PLBenchmarks/data/2019-12-09_p38/03_docked

> <s_m_Source_File>
lig_p38a_2m.pdb

> <i_m_Source_File_Index>
1

$$$$
lig_p38a_2n
                    3D
 Structure written by MMmdl.
 53 56  0  0  1  0            999 V2000
   34.5500   34.9800   21.1800 C   0  0  0  0  0  0
   34.0400   38.9800   23.7400 C   0  0  0  0  0  0
   34.8000   37.8100   21.4400 C   0  0  0  0  0  0
   35.2500   37.1300   20.2300 C   0  0  0  0  0  0
   34.3100   37.0400   22.5100 C   0  0  0  0  0  0
   34.8500   39.2100   21.6200 C   0  0  0  0  0  0
   35.1700   35.7800   20.1300 C   0  0  0  0  0  0
   34.4800   39.7900   22.7800 N   0  0  0  0  0  0
   34.3300   33.7800   21.0200 O   0  0  0  0  0  0
   34.2100   35.6200   22.3400 N   0  0  0  0  0  0
   33.9300   37.6500   23.6600 N   0  0  0  0  0  0
   33.6700   39.5700   24.9300 N   0  0  0  0  0  0
   35.7000   37.7400   19.4700 H   0  0  0  0  0  0
   35.2200   39.8600   20.8400 H   0  0  0  0  0  0
   33.7900   40.5700   24.9700 H   0  0  0  0  0  0
   33.6800   34.8400   23.4400 C   0  0  0  0  0  0
   33.4600   35.5200   24.3100 H   0  0  0  0  0  0
   32.7300   34.3400   23.1200 H   0  0  0  0  0  0
   34.7000   33.7900   23.8700 C   0  0  0  0  0  0
   34.9100   33.1100   23.0100 H   0  0  0  0  0  0
   35.6400   34.3000   24.1900 H   0  0  0  0  0  0
   34.1300   32.9800   25.0300 C   0  0  0  0  0  0
   34.6200   31.9700   25.0500 H   0  0  0  0  0  0
   34.3400   33.5100   25.9900 H   0  0  0  0  0  0
   32.7400   32.8300   24.8700 O   0  0  0  0  0  0
   32.5800   31.8800   24.8600 H   0  0  0  0  0  0
   31.1100   38.2800   27.4300 C   0  0  0  0  0  0
   31.6700   39.0900   26.2600 C   0  0  0  0  0  0
   33.1500   38.7500   26.0100 C   0  0  0  0  0  0
   33.9900   38.9700   27.2800 C   0  0  0  0  0  0
   33.4200   38.1500   28.4500 C   0  0  0  0  0  0
   31.9500   38.4900   28.7000 O   0  0  0  0  0  0
   31.1100   37.1900   27.1600 H   0  0  0  0  0  0
   30.0500   38.5600   27.6200 H   0  0  0  0  0  0
   31.5800   40.1800   26.4800 H   0  0  0  0  0  0
   31.0700   38.9000   25.3300 H   0  0  0  0  0  0
   33.2400   37.6900   25.6800 H   0  0  0  0  0  0
   35.0500   38.6800   27.0900 H   0  0  0  0  0  0
   33.9800   40.0500   27.5400 H   0  0  0  0  0  0
   33.5200   37.0600   28.2300 H   0  0  0  0  0  0
   34.0200   38.3500   29.3800 H   0  0  0  0  0  0
   35.6600   35.1800   19.0100 O   0  0  0  0  0  0
   37.2600   38.0600   16.4500 C   0  0  0  0  0  0
   35.9200   37.6700   16.3200 C   0  0  0  0  0  0
   35.3800   36.7000   17.1800 C   0  0  0  0  0  0
   36.1900   36.1200   18.1700 C   0  0  0  0  0  0
   37.5300   36.5000   18.3000 C   0  0  0  0  0  0
   38.0700   37.4800   17.4400 C   0  0  0  0  0  0
   37.7700   38.9800   15.6300 F   0  0  0  0  0  0
   35.2800   38.1300   15.5400 H   0  0  0  0  0  0
   34.3200   36.4000   17.0800 H   0  0  0  0  0  0
   38.2900   35.9500   19.2500 F   0  0  0  0  0  0
   39.1200   37.7800   17.5500 H   0  0  0  0  0  0
  1  7  1  0  0  0
  1  9  2  0  0  0
  1 10  1  0  0  0
  2  8  1  0  0  0
  2 11  2  0  0  0
  2 12  1  0  0  0
  3  4  1  0  0  0
  3  5  2  0  0  0
  3  6  1  0  0  0
  4  7  2  0  0  0
  4 13  1  0  0  0
  5 10  1  0  0  0
  5 11  1  0  0  0
  6  8  2  0  0  0
  6 14  1  0  0  0
  7 42  1  0  0  0
 10 16  1  0  0  0
 12 15  1  0  0  0
 12 29  1  0  0  0
 16 17  1  0  0  0
 16 18  1  0  0  0
 16 19  1  0  0  0
 19 20  1  0  0  0
 19 21  1  0  0  0
 19 22  1  0  0  0
 22 23  1  0  0  0
 22 24  1  0  0  0
 22 25  1  0  0  0
 25 26  1  0  0  0
 27 28  1  0  0  0
 27 32  1  0  0  0
 27 33  1  0  0  0
 27 34  1  0  0  0
 28 29  1  0  0  0
 28 35  1  0  0  0
 28 36  1  0  0  0
 29 30  1  0  0  0
 29 37  1  0  0  0
 30 31  1  0  0  0
 30 38  1  0  0  0
 30 39  1  0  0  0
 31 32  1  0  0  0
 31 40  1  0  0  0
 31 41  1  0  0  0
 42 46  1  0  0  0
 43 44  1  0  0  0
 43 48  2  0  0  0
 43 49  1  0  0  0
 44 45  2  0  0  0
 44 50  1  0  0  0
 45 46  1  0  0  0
 45 51  1  0  0  0
 46 47  2  0  0  0
 47 48  1  0  0  0
 47 52  1  0  0  0
 48 53  1  0  0  0
M  END
> <s_m_entry_id>
15

> <s_m_entry_name>
lig_p38a_2n.1

> <s_pdb_PDB_TITLE>
MX MODEL

> <i_pdb_PDB_Model>
1

> <r_pdb_PDB_CRYST1_a>
181.54

> <r_pdb_PDB_CRYST1_b>
173.7

> <r_pdb_PDB_CRYST1_c>
276.72

> <r_pdb_PDB_CRYST1_alpha>
90

> <r_pdb_PDB_CRYST1_beta>
90

> <r_pdb_PDB_CRYST1_gamma>
90

> <s_pdb_PDB_CRYST1_Space_Group>
P 1

> <i_pdb_PDB_CRYST1_z>
1

> <s_pdb_PDB_format_version>
3.0

> <s_m_Source_Path>
/users/home/dhahn3/projects/PLBenchmarks/PLBenchmarks/data/2019-12-09_p38/03_docked

> <s_m_Source_File>
lig_p38a_2n.pdb

> <i_m_Source_File_Index>
1

$$$$
lig_p38a_2o
                    3D
 Structure written by MMmdl.
 55 58  0  0  1  0            999 V2000
   34.5500   34.9800   21.1800 C   0  0  0  0  0  0
   34.0400   38.9800   23.7400 C   0  0  0  0  0  0
   34.8000   37.8100   21.4400 C   0  0  0  0  0  0
   35.2500   37.1300   20.2300 C   0  0  0  0  0  0
   34.3100   37.0400   22.5100 C   0  0  0  0  0  0
   34.8500   39.2100   21.6200 C   0  0  0  0  0  0
   35.1700   35.7800   20.1300 C   0  0  0  0  0  0
   34.4800   39.7900   22.7800 N   0  0  0  0  0  0
   34.3300   33.7800   21.0200 O   0  0  0  0  0  0
   34.2100   35.6200   22.3400 N   0  0  0  0  0  0
   33.9300   37.6500   23.6600 N   0  0  0  0  0  0
   33.6700   39.5700   24.9300 N   0  0  0  0  0  0
   35.7000   37.7400   19.4700 H   0  0  0  0  0  0
   35.2200   39.8600   20.8400 H   0  0  0  0  0  0
   33.7900   40.5700   24.9700 H   0  0  0  0  0  0
   33.6800   34.8400   23.4400 C   0  0  0  0  0  0
   33.4600   35.5200   24.3100 H   0  0  0  0  0  0
   32.7300   34.3400   23.1200 H   0  0  0  0  0  0
   34.7000   33.7900   23.8700 C   0  0  0  0  0  0
   34.9100   33.1100   23.0100 H   0  0  0  0  0  0
   35.6400   34.3000   24.1900 H   0  0  0  0  0  0
   34.1500   32.9900   25.0100 S   0  0  0  0  0  0
   33.8700   33.9200   26.1300 O   0  0  0  0  0  0
   35.0900   31.8800   25.3000 O   0  0  0  0  0  0
   32.8400   32.4000   24.5600 C   0  0  0  0  0  0
   33.0300   31.6900   23.7200 H   0  0  0  0  0  0
   32.3800   31.8400   25.4200 H   0  0  0  0  0  0
   32.1500   33.2100   24.2300 H   0  0  0  0  0  0
   31.1500   38.3500   27.5000 C   0  0  0  0  0  0
   31.7100   39.1700   26.3300 C   0  0  0  0  0  0
   33.1500   38.7500   26.0100 C   0  0  0  0  0  0
   34.0500   38.8900   27.2500 C   0  0  0  0  0  0
   33.4900   38.0700   28.4200 C   0  0  0  0  0  0
   32.0400   38.4900   28.7400 O   0  0  0  0  0  0
   31.0800   37.2700   27.2100 H   0  0  0  0  0  0
   30.1100   38.6900   27.7400 H   0  0  0  0  0  0
   31.6800   40.2500   26.5800 H   0  0  0  0  0  0
   31.0600   39.0300   25.4200 H   0  0  0  0  0  0
   33.1700   37.6900   25.6500 H   0  0  0  0  0  0
   35.0900   38.5500   27.0100 H   0  0  0  0  0  0
   34.1100   39.9700   27.5400 H   0  0  0  0  0  0
   33.5200   36.9900   28.1700 H   0  0  0  0  0  0
   34.1300   38.2100   29.3300 H   0  0  0  0  0  0
   35.6600   35.1800   19.0100 O   0  0  0  0  0  0
   37.2600   38.0600   16.4500 C   0  0  0  0  0  0
   38.0600   37.4800   17.4500 C   0  0  0  0  0  0
   37.5200   36.5100   18.3100 C   0  0  0  0  0  0
   36.1900   36.1200   18.1700 C   0  0  0  0  0  0
   35.3800   36.6900   17.1700 C   0  0  0  0  0  0
   35.9200   37.6600   16.3100 C   0  0  0  0  0  0
   37.7700   38.9800   15.6300 F   0  0  0  0  0  0
   39.1200   37.8000   17.5600 H   0  0  0  0  0  0
   38.2900   35.9700   19.2600 F   0  0  0  0  0  0
   34.3300   36.3800   17.0600 H   0  0  0  0  0  0
   35.2900   38.1100   15.5300 H   0  0  0  0  0  0
  1  7  1  0  0  0
  1  9  2  0  0  0
  1 10  1  0  0  0
  2  8  1  0  0  0
  2 11  2  0  0  0
  2 12  1  0  0  0
  3  4  1  0  0  0
  3  5  2  0  0  0
  3  6  1  0  0  0
  4  7  2  0  0  0
  4 13  1  0  0  0
  5 10  1  0  0  0
  5 11  1  0  0  0
  6  8  2  0  0  0
  6 14  1  0  0  0
  7 44  1  0  0  0
 10 16  1  0  0  0
 12 15  1  0  0  0
 12 31  1  0  0  0
 16 17  1  0  0  0
 16 18  1  0  0  0
 16 19  1  0  0  0
 19 20  1  0  0  0
 19 21  1  0  0  0
 19 22  1  0  0  0
 22 23  2  0  0  0
 22 24  2  0  0  0
 22 25  1  0  0  0
 25 26  1  0  0  0
 25 27  1  0  0  0
 25 28  1  0  0  0
 29 30  1  0  0  0
 29 34  1  0  0  0
 29 35  1  0  0  0
 29 36  1  0  0  0
 30 31  1  0  0  0
 30 37  1  0  0  0
 30 38  1  0  0  0
 31 32  1  0  0  0
 31 39  1  0  0  0
 32 33  1  0  0  0
 32 40  1  0  0  0
 32 41  1  0  0  0
 33 34  1  0  0  0
 33 42  1  0  0  0
 33 43  1  0  0  0
 44 48  1  0  0  0
 45 46  1  0  0  0
 45 50  2  0  0  0
 45 51  1  0  0  0
 46 47  2  0  0  0
 46 52  1  0  0  0
 47 48  1  0  0  0
 47 53  1  0  0  0
 48 49  2  0  0  0
 49 50  1  0  0  0
 49 54  1  0  0  0
 50 55  1  0  0  0
M  END
> <s_m_entry_id>
16

> <s_m_entry_name>
lig_p38a_2o.1

> <s_pdb_PDB_TITLE>
MX MODEL

> <i_pdb_PDB_Model>
1

> <r_pdb_PDB_CRYST1_a>
180.16

> <r_pdb_PDB_CRYST1_b>
177.56

> <r_pdb_PDB_CRYST1_c>
276

> <r_pdb_PDB_CRYST1_alpha>
90

> <r_pdb_PDB_CRYST1_beta>
90

> <r_pdb_PDB_CRYST1_gamma>
90

> <s_pdb_PDB_CRYST1_Space_Group>
P 1

> <i_pdb_PDB_CRYST1_z>
1

> <s_pdb_PDB_format_version>
3.0

> <s_m_Source_Path>
/users/home/dhahn3/projects/PLBenchmarks/PLBenchmarks/data/2019-12-09_p38/03_docked

> <s_m_Source_File>
lig_p38a_2o.pdb

> <i_m_Source_File_Index>
1

$$$$
lig_p38a_2p
                    3D
 Structure written by MMmdl.
 58 61  0  0  1  0            999 V2000
   34.5500   34.9800   21.1800 C   0  0  0  0  0  0
   34.0400   38.9800   23.7400 C   0  0  0  0  0  0
   34.8000   37.8100   21.4400 C   0  0  0  0  0  0
   35.2500   37.1300   20.2300 C   0  0  0  0  0  0
   34.3100   37.0400   22.5100 C   0  0  0  0  0  0
   34.8500   39.2100   21.6200 C   0  0  0  0  0  0
   35.1700   35.7800   20.1300 C   0  0  0  0  0  0
   34.4800   39.7900   22.7800 N   0  0  0  0  0  0
   34.3300   33.7800   21.0200 O   0  0  0  0  0  0
   34.2100   35.6200   22.3400 N   0  0  0  0  0  0
   33.9300   37.6500   23.6600 N   0  0  0  0  0  0
   33.6700   39.5700   24.9300 N   0  0  0  0  0  0
   35.7000   37.7400   19.4700 H   0  0  0  0  0  0
   35.2200   39.8600   20.8400 H   0  0  0  0  0  0
   33.7900   40.5700   24.9700 H   0  0  0  0  0  0
   33.6800   34.8400   23.4400 C   0  0  0  0  0  0
   33.4600   35.5200   24.3100 H   0  0  0  0  0  0
   32.7300   34.3400   23.1200 H   0  0  0  0  0  0
   34.7000   33.7900   23.8700 C   0  0  0  0  0  0
   34.9100   33.1100   23.0100 H   0  0  0  0  0  0
   35.6400   34.3000   24.1900 H   0  0  0  0  0  0
   34.1300   32.9800   25.0300 C   0  0  0  0  0  0
   33.9200   33.6600   25.8900 H   0  0  0  0  0  0
   34.8800   32.2100   25.3400 H   0  0  0  0  0  0
   32.8700   32.3000   24.6000 S   0  0  0  0  0  0
   33.1900   31.4100   23.4600 O   0  0  0  0  0  0
   31.8500   33.3400   24.3400 O   0  0  0  0  0  0
   32.3900   31.4500   25.7400 C   0  0  0  0  0  0
   32.1400   32.1000   26.6100 H   0  0  0  0  0  0
   31.4800   30.8900   25.4200 H   0  0  0  0  0  0
   33.1900   30.7300   26.0300 H   0  0  0  0  0  0
   31.1200   38.3100   27.4600 C   0  0  0  0  0  0
   31.6800   39.1200   26.2900 C   0  0  0  0  0  0
   33.1500   38.7500   26.0100 C   0  0  0  0  0  0
   34.0100   38.9400   27.2700 C   0  0  0  0  0  0
   33.4500   38.1200   28.4400 C   0  0  0  0  0  0
   31.9900   38.4900   28.7200 O   0  0  0  0  0  0
   31.1000   37.2300   27.1800 H   0  0  0  0  0  0
   30.0700   38.6200   27.6700 H   0  0  0  0  0  0
   31.6200   40.2100   26.5200 H   0  0  0  0  0  0
   31.0700   38.9500   25.3700 H   0  0  0  0  0  0
   33.2100   37.6900   25.6700 H   0  0  0  0  0  0
   35.0700   38.6300   27.0600 H   0  0  0  0  0  0
   34.0400   40.0200   27.5400 H   0  0  0  0  0  0
   33.5200   37.0300   28.2000 H   0  0  0  0  0  0
   34.0700   38.2900   29.3600 H   0  0  0  0  0  0
   35.6600   35.1800   19.0100 O   0  0  0  0  0  0
   37.2600   38.0600   16.4500 C   0  0  0  0  0  0
   38.0500   37.5200   17.4800 C   0  0  0  0  0  0
   37.5100   36.5500   18.3500 C   0  0  0  0  0  0
   36.1900   36.1200   18.1700 C   0  0  0  0  0  0
   35.4000   36.6500   17.1400 C   0  0  0  0  0  0
   35.9400   37.6200   16.2800 C   0  0  0  0  0  0
   37.7700   38.9800   15.6300 F   0  0  0  0  0  0
   39.0900   37.8600   17.6200 H   0  0  0  0  0  0
   38.2600   36.0400   19.3200 F   0  0  0  0  0  0
   34.3600   36.3100   17.0100 H   0  0  0  0  0  0
   35.3200   38.0500   15.4700 H   0  0  0  0  0  0
  1  7  1  0  0  0
  1  9  2  0  0  0
  1 10  1  0  0  0
  2  8  1  0  0  0
  2 11  2  0  0  0
  2 12  1  0  0  0
  3  4  1  0  0  0
  3  5  2  0  0  0
  3  6  1  0  0  0
  4  7  2  0  0  0
  4 13  1  0  0  0
  5 10  1  0  0  0
  5 11  1  0  0  0
  6  8  2  0  0  0
  6 14  1  0  0  0
  7 47  1  0  0  0
 10 16  1  0  0  0
 12 15  1  0  0  0
 12 34  1  0  0  0
 16 17  1  0  0  0
 16 18  1  0  0  0
 16 19  1  0  0  0
 19 20  1  0  0  0
 19 21  1  0  0  0
 19 22  1  0  0  0
 22 23  1  0  0  0
 22 24  1  0  0  0
 22 25  1  0  0  0
 25 26  2  0  0  0
 25 27  2  0  0  0
 25 28  1  0  0  0
 28 29  1  0  0  0
 28 30  1  0  0  0
 28 31  1  0  0  0
 32 33  1  0  0  0
 32 37  1  0  0  0
 32 38  1  0  0  0
 32 39  1  0  0  0
 33 34  1  0  0  0
 33 40  1  0  0  0
 33 41  1  0  0  0
 34 35  1  0  0  0
 34 42  1  0  0  0
 35 36  1  0  0  0
 35 43  1  0  0  0
 35 44  1  0  0  0
 36 37  1  0  0  0
 36 45  1  0  0  0
 36 46  1  0  0  0
 47 51  1  0  0  0
 48 49  1  0  0  0
 48 53  2  0  0  0
 48 54  1  0  0  0
 49 50  2  0  0  0
 49 55  1  0  0  0
 50 51  1  0  0  0
 50 56  1  0  0  0
 51 52  2  0  0  0
 52 53  1  0  0  0
 52 57  1  0  0  0
 53 58  1  0  0  0
M  END
> <s_m_entry_id>
17

> <s_m_entry_name>
lig_p38a_2p.1

> <s_pdb_PDB_TITLE>
MX MODEL

> <i_pdb_PDB_Model>
1

> <r_pdb_PDB_CRYST1_a>
180.36

> <r_pdb_PDB_CRYST1_b>
196.82

> <r_pdb_PDB_CRYST1_c>
277.74

> <r_pdb_PDB_CRYST1_alpha>
90

> <r_pdb_PDB_CRYST1_beta>
90

> <r_pdb_PDB_CRYST1_gamma>
90

> <s_pdb_PDB_CRYST1_Space_Group>
P 1

> <i_pdb_PDB_CRYST1_z>
1

> <s_pdb_PDB_format_version>
3.0

> <s_m_Source_Path>
/users/home/dhahn3/projects/PLBenchmarks/PLBenchmarks/data/2019-12-09_p38/03_docked

> <s_m_Source_File>
lig_p38a_2p.pdb

> <i_m_Source_File_Index>
1

$$$$
lig_p38a_2q
                    3D
 Structure written by MMmdl.
 59 63  0  0  1  0            999 V2000
   34.5500   34.9800   21.1800 C   0  0  0  0  0  0
   34.0400   38.9800   23.7400 C   0  0  0  0  0  0
   34.8000   37.8100   21.4400 C   0  0  0  0  0  0
   35.2500   37.1300   20.2300 C   0  0  0  0  0  0
   34.3100   37.0400   22.5100 C   0  0  0  0  0  0
   34.8500   39.2100   21.6200 C   0  0  0  0  0  0
   35.1700   35.7800   20.1300 C   0  0  0  0  0  0
   34.4800   39.7900   22.7800 N   0  0  0  0  0  0
   34.3300   33.7800   21.0200 O   0  0  0  0  0  0
   34.2100   35.6200   22.3400 N   0  0  0  0  0  0
   33.9300   37.6500   23.6600 N   0  0  0  0  0  0
   33.6700   39.5700   24.9300 N   0  0  0  0  0  0
   35.7000   37.7400   19.4700 H   0  0  0  0  0  0
   35.2200   39.8600   20.8400 H   0  0  0  0  0  0
   33.7900   40.5700   24.9700 H   0  0  0  0  0  0
   31.9900   33.2000   24.2700 C   0  0  0  0  0  0
   32.5400   33.9800   23.0600 C   0  0  0  0  0  0
   33.7300   34.8600   23.4800 C   0  0  0  0  0  0
   33.3500   35.8100   24.6200 C   0  0  0  0  0  0
   32.7900   35.0300   25.8200 C   0  0  0  0  0  0
   32.7600   32.4800   24.6300 H   0  0  0  0  0  0
   31.1000   32.6000   23.9500 H   0  0  0  0  0  0
   31.7400   34.6300   22.6400 H   0  0  0  0  0  0
   32.8500   33.2700   22.2600 H   0  0  0  0  0  0
   34.5800   34.2000   23.8100 H   0  0  0  0  0  0
   34.2400   36.4100   24.9400 H   0  0  0  0  0  0
   32.5800   36.5300   24.2600 H   0  0  0  0  0  0
   33.6000   34.3800   26.2500 H   0  0  0  0  0  0
   32.4800   35.7400   26.6300 H   0  0  0  0  0  0
   31.5800   34.1600   25.4200 S   0  0  0  0  0  0
   30.5200   35.0600   24.9100 O   0  0  0  0  0  0
   31.2100   33.3200   26.5800 O   0  0  0  0  0  0
   31.1300   38.3300   27.4800 C   0  0  0  0  0  0
   31.7000   39.1500   26.3100 C   0  0  0  0  0  0
   33.1500   38.7500   26.0100 C   0  0  0  0  0  0
   34.0300   38.9100   27.2600 C   0  0  0  0  0  0
   33.4700   38.1000   28.4300 C   0  0  0  0  0  0
   32.0100   38.4900   28.7300 O   0  0  0  0  0  0
   31.0900   37.2500   27.2000 H   0  0  0  0  0  0
   30.0900   38.6500   27.7100 H   0  0  0  0  0  0
   31.6500   40.2300   26.5500 H   0  0  0  0  0  0
   31.0600   38.9900   25.4000 H   0  0  0  0  0  0
   33.1900   37.6900   25.6600 H   0  0  0  0  0  0
   35.0800   38.5900   27.0300 H   0  0  0  0  0  0
   34.0800   39.9900   27.5400 H   0  0  0  0  0  0
   33.5200   37.0100   28.1900 H   0  0  0  0  0  0
   34.1000   38.2500   29.3400 H   0  0  0  0  0  0
   35.6600   35.1800   19.0100 O   0  0  0  0  0  0
   37.2600   38.0600   16.4500 C   0  0  0  0  0  0
   38.0600   37.4800   17.4500 C   0  0  0  0  0  0
   37.5200   36.5100   18.3100 C   0  0  0  0  0  0
   36.1900   36.1200   18.1700 C   0  0  0  0  0  0
   35.3800   36.6900   17.1700 C   0  0  0  0  0  0
   35.9200   37.6600   16.3100 C   0  0  0  0  0  0
   37.7700   38.9800   15.6300 F   0  0  0  0  0  0
   39.1200   37.8000   17.5600 H   0  0  0  0  0  0
   38.2900   35.9700   19.2600 F   0  0  0  0  0  0
   34.3300   36.3800   17.0600 H   0  0  0  0  0  0
   35.2900   38.1100   15.5300 H   0  0  0  0  0  0
  1  7  1  0  0  0
  1  9  2  0  0  0
  1 10  1  0  0  0
  2  8  1  0  0  0
  2 11  2  0  0  0
  2 12  1  0  0  0
  3  4  1  0  0  0
  3  5  2  0  0  0
  3  6  1  0  0  0
  4  7  2  0  0  0
  4 13  1  0  0  0
  5 10  1  0  0  0
  5 11  1  0  0  0
  6  8  2  0  0  0
  6 14  1  0  0  0
  7 48  1  0  0  0
 10 18  1  0  0  0
 12 15  1  0  0  0
 12 35  1  0  0  0
 16 17  1  0  0  0
 16 21  1  0  0  0
 16 22  1  0  0  0
 16 30  1  0  0  0
 17 18  1  0  0  0
 17 23  1  0  0  0
 17 24  1  0  0  0
 18 19  1  0  0  0
 18 25  1  0  0  0
 19 20  1  0  0  0
 19 26  1  0  0  0
 19 27  1  0  0  0
 20 28  1  0  0  0
 20 29  1  0  0  0
 20 30  1  0  0  0
 30 31  2  0  0  0
 30 32  2  0  0  0
 33 34  1  0  0  0
 33 38  1  0  0  0
 33 39  1  0  0  0
 33 40  1  0  0  0
 34 35  1  0  0  0
 34 41  1  0  0  0
 34 42  1  0  0  0
 35 36  1  0  0  0
 35 43  1  0  0  0
 36 37  1  0  0  0
 36 44  1  0  0  0
 36 45  1  0  0  0
 37 38  1  0  0  0
 37 46  1  0  0  0
 37 47  1  0  0  0
 48 52  1  0  0  0
 49 50  1  0  0  0
 49 54  2  0  0  0
 49 55  1  0  0  0
 50 51  2  0  0  0
 50 56  1  0  0  0
 51 52  1  0  0  0
 51 57  1  0  0  0
 52 53  2  0  0  0
 53 54  1  0  0  0
 53 58  1  0  0  0
 54 59  1  0  0  0
M  END
> <s_m_entry_id>
18

> <s_m_entry_name>
lig_p38a_2q.1

> <s_pdb_PDB_TITLE>
MX MODEL

> <i_pdb_PDB_Model>
1

> <r_pdb_PDB_CRYST1_a>
180.54

> <r_pdb_PDB_CRYST1_b>
161.78

> <r_pdb_PDB_CRYST1_c>
276.3

> <r_pdb_PDB_CRYST1_alpha>
90

> <r_pdb_PDB_CRYST1_beta>
90

> <r_pdb_PDB_CRYST1_gamma>
90

> <s_pdb_PDB_CRYST1_Space_Group>
P 1

> <i_pdb_PDB_CRYST1_z>
1

> <s_pdb_PDB_format_version>
3.0

> <s_m_Source_Path>
/users/home/dhahn3/projects/PLBenchmarks/PLBenchmarks/data/2019-12-09_p38/03_docked

> <s_m_Source_File>
lig_p38a_2q.pdb

> <i_m_Source_File_Index>
1

$$$$
lig_p38a_2r
                    3D
 Structure written by MMmdl.
 56 59  0  0  1  0            999 V2000
   34.5500   34.9800   21.1800 C   0  0  0  0  0  0
   34.0400   38.9800   23.7400 C   0  0  0  0  0  0
   34.8000   37.8100   21.4400 C   0  0  0  0  0  0
   35.2500   37.1300   20.2300 C   0  0  0  0  0  0
   34.3100   37.0400   22.5100 C   0  0  0  0  0  0
   34.8500   39.2100   21.6200 C   0  0  0  0  0  0
   35.1700   35.7800   20.1300 C   0  0  0  0  0  0
   34.4800   39.7900   22.7800 N   0  0  0  0  0  0
   34.3300   33.7800   21.0200 O   0  0  0  0  0  0
   34.2100   35.6200   22.3400 N   0  0  0  0  0  0
   33.9300   37.6500   23.6600 N   0  0  0  0  0  0
   33.6700   39.5700   24.9300 N   0  0  0  0  0  0
   35.7000   37.7400   19.4700 H   0  0  0  0  0  0
   35.2200   39.8600   20.8400 H   0  0  0  0  0  0
   33.7900   40.5700   24.9700 H   0  0  0  0  0  0
   33.6800   34.8400   23.4400 C   0  0  0  0  0  0
   33.4600   35.5200   24.3100 H   0  0  0  0  0  0
   32.7300   34.3400   23.1200 H   0  0  0  0  0  0
   34.7000   33.7900   23.8700 C   0  0  0  0  0  0
   34.9700   32.9400   22.7800 O   0  0  0  0  0  0
   34.1300   32.5300   22.5500 H   0  0  0  0  0  0
   34.1300   32.9800   25.0300 C   0  0  0  0  0  0
   33.1200   32.5900   24.7600 H   0  0  0  0  0  0
   34.8200   32.1200   25.2500 H   0  0  0  0  0  0
   34.0500   33.6300   25.9400 H   0  0  0  0  0  0
   35.9900   34.4800   24.3100 C   0  0  0  0  0  0
   36.7400   33.7100   24.6200 H   0  0  0  0  0  0
   36.4000   35.0800   23.4600 H   0  0  0  0  0  0
   35.7700   35.1600   25.1700 H   0  0  0  0  0  0
   31.1400   38.3400   27.4900 C   0  0  0  0  0  0
   31.7000   39.1600   26.3200 C   0  0  0  0  0  0
   33.1500   38.7500   26.0100 C   0  0  0  0  0  0
   34.0400   38.9000   27.2500 C   0  0  0  0  0  0
   33.4800   38.0800   28.4300 C   0  0  0  0  0  0
   32.0300   38.4900   28.7400 O   0  0  0  0  0  0
   31.0800   37.2600   27.2000 H   0  0  0  0  0  0
   30.1000   38.6700   27.7200 H   0  0  0  0  0  0
   31.6600   40.2400   26.5700 H   0  0  0  0  0  0
   31.0600   39.0100   25.4100 H   0  0  0  0  0  0
   33.1700   37.6900   25.6600 H   0  0  0  0  0  0
   35.0800   38.5700   27.0200 H   0  0  0  0  0  0
   34.1000   39.9800   27.5400 H   0  0  0  0  0  0
   33.5200   37.0000   28.1800 H   0  0  0  0  0  0
   34.1200   38.2300   29.3300 H   0  0  0  0  0  0
   35.6600   35.1800   19.0100 O   0  0  0  0  0  0
   37.2600   38.0600   16.4500 C   0  0  0  0  0  0
   38.0600   37.4900   17.4600 C   0  0  0  0  0  0
   37.5200   36.5200   18.3200 C   0  0  0  0  0  0
   36.1900   36.1200   18.1700 C   0  0  0  0  0  0
   35.3900   36.6800   17.1600 C   0  0  0  0  0  0
   35.9200   37.6500   16.3000 C   0  0  0  0  0  0
   37.7700   38.9800   15.6300 F   0  0  0  0  0  0
   39.1100   37.8100   17.5800 H   0  0  0  0  0  0
   38.2800   35.9900   19.2800 F   0  0  0  0  0  0
   34.3400   36.3600   17.0500 H   0  0  0  0  0  0
   35.3000   38.0900   15.5100 H   0  0  0  0  0  0
  1  7  1  0  0  0
  1  9  2  0  0  0
  1 10  1  0  0  0
  2  8  1  0  0  0
  2 11  2  0  0  0
  2 12  1  0  0  0
  3  4  1  0  0  0
  3  5  2  0  0  0
  3  6  1  0  0  0
  4  7  2  0  0  0
  4 13  1  0  0  0
  5 10  1  0  0  0
  5 11  1  0  0  0
  6  8  2  0  0  0
  6 14  1  0  0  0
  7 45  1  0  0  0
 10 16  1  0  0  0
 12 15  1  0  0  0
 12 32  1  0  0  0
 16 17  1  0  0  0
 16 18  1  0  0  0
 16 19  1  0  0  0
 19 20  1  0  0  0
 19 22  1  0  0  0
 19 26  1  0  0  0
 20 21  1  0  0  0
 22 23  1  0  0  0
 22 24  1  0  0  0
 22 25  1  0  0  0
 26 27  1  0  0  0
 26 28  1  0  0  0
 26 29  1  0  0  0
 30 31  1  0  0  0
 30 35  1  0  0  0
 30 36  1  0  0  0
 30 37  1  0  0  0
 31 32  1  0  0  0
 31 38  1  0  0  0
 31 39  1  0  0  0
 32 33  1  0  0  0
 32 40  1  0  0  0
 33 34  1  0  0  0
 33 41  1  0  0  0
 33 42  1  0  0  0
 34 35  1  0  0  0
 34 43  1  0  0  0
 34 44  1  0  0  0
 45 49  1  0  0  0
 46 47  1  0  0  0
 46 51  2  0  0  0
 46 52  1  0  0  0
 47 48  2  0  0  0
 47 53  1  0  0  0
 48 49  1  0  0  0
 48 54  1  0  0  0
 49 50  2  0  0  0
 50 51  1  0  0  0
 50 55  1  0  0  0
 51 56  1  0  0  0
M  END
> <s_m_entry_id>
19

> <s_m_entry_name>
lig_p38a_2r.1

> <s_pdb_PDB_TITLE>
MX MODEL

> <i_pdb_PDB_Model>
1

> <r_pdb_PDB_CRYST1_a>
180.24

> <r_pdb_PDB_CRYST1_b>
169.02

> <r_pdb_PDB_CRYST1_c>
276.46

> <r_pdb_PDB_CRYST1_alpha>
90

> <r_pdb_PDB_CRYST1_beta>
90

> <r_pdb_PDB_CRYST1_gamma>
90

> <s_pdb_PDB_CRYST1_Space_Group>
P 1

> <i_pdb_PDB_CRYST1_z>
1

> <s_pdb_PDB_format_version>
3.0

> <s_m_Source_Path>
/users/home/dhahn3/projects/PLBenchmarks/PLBenchmarks/data/2019-12-09_p38/03_docked

> <s_m_Source_File>
lig_p38a_2r.pdb

> <i_m_Source_File_Index>
1

$$$$
lig_p38a_2s
                    3D
 Structure written by MMmdl.
 54 57  0  0  1  0            999 V2000
   34.5500   34.9800   21.1800 C   0  0  0  0  0  0
   34.0400   38.9800   23.7400 C   0  0  0  0  0  0
   34.8000   37.8100   21.4400 C   0  0  0  0  0  0
   35.2500   37.1300   20.2300 C   0  0  0  0  0  0
   34.3100   37.0400   22.5100 C   0  0  0  0  0  0
   34.8500   39.2100   21.6200 C   0  0  0  0  0  0
   35.1700   35.7800   20.1300 C   0  0  0  0  0  0
   34.4800   39.7900   22.7800 N   0  0  0  0  0  0
   34.3300   33.7800   21.0200 O   0  0  0  0  0  0
   34.2100   35.6200   22.3400 N   0  0  0  0  0  0
   33.9300   37.6500   23.6600 N   0  0  0  0  0  0
   33.6700   39.5700   24.9300 N   0  0  0  0  0  0
   35.7000   37.7400   19.4700 H   0  0  0  0  0  0
   35.2200   39.8600   20.8400 H   0  0  0  0  0  0
   33.7900   40.5700   24.9700 H   0  0  0  0  0  0
   33.6800   34.8400   23.4400 C   0  0  0  0  0  0
   33.4600   35.5200   24.3100 H   0  0  0  0  0  0
   32.7300   34.3400   23.1200 H   0  0  0  0  0  0
   34.7000   33.7900   23.8700 C   0  0  2  0  0  0
   34.9700   32.9400   22.7800 O   0  0  0  0  0  0
   34.1300   32.5300   22.5500 H   0  0  0  0  0  0
   34.1300   32.9800   25.0300 C   0  0  0  0  0  0
   34.3600   33.5000   25.9900 H   0  0  0  0  0  0
   34.6000   31.9600   25.0300 H   0  0  0  0  0  0
   35.6200   34.2800   24.1800 H   0  0  0  0  0  0
   32.7400   32.8500   24.8800 O   0  0  0  0  0  0
   32.6000   32.4000   24.0500 H   0  0  0  0  0  0
   31.1200   38.3100   27.4600 C   0  0  0  0  0  0
   31.6800   39.1200   26.2900 C   0  0  0  0  0  0
   33.1500   38.7500   26.0100 C   0  0  0  0  0  0
   34.0100   38.9400   27.2700 C   0  0  0  0  0  0
   33.4500   38.1200   28.4400 C   0  0  0  0  0  0
   31.9900   38.4900   28.7200 O   0  0  0  0  0  0
   31.1000   37.2300   27.1800 H   0  0  0  0  0  0
   30.0700   38.6200   27.6700 H   0  0  0  0  0  0
   31.6200   40.2100   26.5200 H   0  0  0  0  0  0
   31.0700   38.9500   25.3700 H   0  0  0  0  0  0
   33.2100   37.6900   25.6700 H   0  0  0  0  0  0
   35.0700   38.6300   27.0600 H   0  0  0  0  0  0
   34.0400   40.0200   27.5400 H   0  0  0  0  0  0
   33.5200   37.0300   28.2000 H   0  0  0  0  0  0
   34.0700   38.2900   29.3600 H   0  0  0  0  0  0
   35.6600   35.1800   19.0100 O   0  0  0  0  0  0
   37.2600   38.0600   16.4500 C   0  0  0  0  0  0
   35.9100   37.7000   16.3500 C   0  0  0  0  0  0
   35.3700   36.7300   17.2100 C   0  0  0  0  0  0
   36.1900   36.1200   18.1700 C   0  0  0  0  0  0
   37.5400   36.4800   18.2800 C   0  0  0  0  0  0
   38.0800   37.4500   17.4200 C   0  0  0  0  0  0
   37.7700   38.9800   15.6300 F   0  0  0  0  0  0
   35.2700   38.1800   15.5900 H   0  0  0  0  0  0
   34.3100   36.4400   17.1200 H   0  0  0  0  0  0
   38.3100   35.9000   19.2000 F   0  0  0  0  0  0
   39.1400   37.7300   17.5000 H   0  0  0  0  0  0
  1  7  1  0  0  0
  1  9  2  0  0  0
  1 10  1  0  0  0
  2  8  1  0  0  0
  2 11  2  0  0  0
  2 12  1  0  0  0
  3  4  1  0  0  0
  3  5  2  0  0  0
  3  6  1  0  0  0
  4  7  2  0  0  0
  4 13  1  0  0  0
  5 10  1  0  0  0
  5 11  1  0  0  0
  6  8  2  0  0  0
  6 14  1  0  0  0
  7 43  1  0  0  0
 10 16  1  0  0  0
 12 15  1  0  0  0
 12 30  1  0  0  0
 16 17  1  0  0  0
 16 18  1  0  0  0
 16 19  1  0  0  0
 19 20  1  0  0  0
 19 22  1  0  0  0
 19 25  1  0  0  0
 20 21  1  0  0  0
 22 23  1  0  0  0
 22 24  1  0  0  0
 22 26  1  0  0  0
 26 27  1  0  0  0
 28 29  1  0  0  0
 28 33  1  0  0  0
 28 34  1  0  0  0
 28 35  1  0  0  0
 29 30  1  0  0  0
 29 36  1  0  0  0
 29 37  1  0  0  0
 30 31  1  0  0  0
 30 38  1  0  0  0
 31 32  1  0  0  0
 31 39  1  0  0  0
 31 40  1  0  0  0
 32 33  1  0  0  0
 32 41  1  0  0  0
 32 42  1  0  0  0
 43 47  1  0  0  0
 44 45  1  0  0  0
 44 49  2  0  0  0
 44 50  1  0  0  0
 45 46  2  0  0  0
 45 51  1  0  0  0
 46 47  1  0  0  0
 46 52  1  0  0  0
 47 48  2  0  0  0
 48 49  1  0  0  0
 48 53  1  0  0  0
 49 54  1  0  0  0
M  END
> <s_m_entry_id>
20

> <s_m_entry_name>
lig_p38a_2s.1

> <s_pdb_PDB_TITLE>
MX MODEL

> <i_pdb_PDB_Model>
1

> <r_pdb_PDB_CRYST1_a>
181.38

> <r_pdb_PDB_CRYST1_b>
172.16

> <r_pdb_PDB_CRYST1_c>
275.42

> <r_pdb_PDB_CRYST1_alpha>
90

> <r_pdb_PDB_CRYST1_beta>
90

> <r_pdb_PDB_CRYST1_gamma>
90

> <s_pdb_PDB_CRYST1_Space_Group>
P 1

> <i_pdb_PDB_CRYST1_z>
1

> <s_pdb_PDB_format_version>
3.0

> <s_m_Source_Path>
/users/home/dhahn3/projects/PLBenchmarks/PLBenchmarks/data/2019-12-09_p38/03_docked

> <s_m_Source_File>
lig_p38a_2s.pdb

> <i_m_Source_File_Index>
1

$$$$
lig_p38a_2t
                    3D
 Structure written by MMmdl.
 47 50  0  0  1  0            999 V2000
   34.5500   34.9800   21.1800 C   0  0  0  0  0  0
   34.0400   38.9800   23.7400 C   0  0  0  0  0  0
   34.8000   37.8100   21.4400 C   0  0  0  0  0  0
   35.2500   37.1300   20.2300 C   0  0  0  0  0  0
   34.3100   37.0400   22.5100 C   0  0  0  0  0  0
   34.8500   39.2100   21.6200 C   0  0  0  0  0  0
   35.1700   35.7800   20.1300 C   0  0  0  0  0  0
   34.4800   39.7900   22.7800 N   0  0  0  0  0  0
   34.3300   33.7800   21.0200 O   0  0  0  0  0  0
   34.2100   35.6200   22.3400 N   0  0  0  0  0  0
   33.9300   37.6500   23.6600 N   0  0  0  0  0  0
   33.6700   39.5700   24.9300 N   0  0  0  0  0  0
   35.7000   37.7400   19.4700 H   0  0  0  0  0  0
   35.2200   39.8600   20.8400 H   0  0  0  0  0  0
   33.7900   40.5700   24.9700 H   0  0  0  0  0  0
   33.6800   34.8400   23.4400 C   0  0  0  0  0  0
   34.1500   35.1800   24.4000 H   0  0  0  0  0  0
   32.1500   35.0500   23.5300 C   0  0  0  0  0  0
   31.1200   38.3100   27.4600 C   0  0  0  0  0  0
   31.6800   39.1200   26.2900 C   0  0  0  0  0  0
   33.1500   38.7500   26.0100 C   0  0  0  0  0  0
   34.0100   38.9400   27.2700 C   0  0  0  0  0  0
   33.4500   38.1200   28.4400 C   0  0  0  0  0  0
   31.9900   38.4900   28.7200 O   0  0  0  0  0  0
   31.1000   37.2300   27.1800 H   0  0  0  0  0  0
   30.0700   38.6200   27.6700 H   0  0  0  0  0  0
   31.6200   40.2100   26.5200 H   0  0  0  0  0  0
   31.0700   38.9500   25.3700 H   0  0  0  0  0  0
   33.2100   37.6900   25.6700 H   0  0  0  0  0  0
   35.0700   38.6300   27.0600 H   0  0  0  0  0  0
   34.0400   40.0200   27.5400 H   0  0  0  0  0  0
   33.5200   37.0300   28.2000 H   0  0  0  0  0  0
   34.0700   38.2900   29.3600 H   0  0  0  0  0  0
   35.6600   35.1800   19.0100 O   0  0  0  0  0  0
   37.2600   38.0600   16.4500 C   0  0  0  0  0  0
   38.0700   37.4700   17.4400 C   0  0  0  0  0  0
   37.5300   36.5000   18.3000 C   0  0  0  0  0  0
   36.1900   36.1200   18.1700 C   0  0  0  0  0  0
   35.3800   36.7000   17.1800 C   0  0  0  0  0  0
   35.9200   37.6700   16.3200 C   0  0  0  0  0  0
   37.7700   38.9800   15.6300 F   0  0  0  0  0  0
   39.1200   37.7800   17.5500 H   0  0  0  0  0  0
   38.2900   35.9500   19.2500 F   0  0  0  0  0  0
   34.3200   36.4000   17.0800 H   0  0  0  0  0  0
   35.2800   38.1300   15.5400 H   0  0  0  0  0  0
   33.8900   33.7900   23.2800 H   0  0  0  0  0  0
   30.7000   35.2500   23.6100 N   0  0  0  0  0  0
  1  7  1  0  0  0
  1  9  2  0  0  0
  1 10  1  0  0  0
  2  8  1  0  0  0
  2 11  2  0  0  0
  2 12  1  0  0  0
  3  4  1  0  0  0
  3  5  2  0  0  0
  3  6  1  0  0  0
  4  7  2  0  0  0
  4 13  1  0  0  0
  5 10  1  0  0  0
  5 11  1  0  0  0
  6  8  2  0  0  0
  6 14  1  0  0  0
  7 34  1  0  0  0
 10 16  1  0  0  0
 12 15  1  0  0  0
 12 21  1  0  0  0
 16 17  1  0  0  0
 16 18  1  0  0  0
 16 46  1  0  0  0
 18 47  3  0  0  0
 19 20  1  0  0  0
 19 24  1  0  0  0
 19 25  1  0  0  0
 19 26  1  0  0  0
 20 21  1  0  0  0
 20 27  1  0  0  0
 20 28  1  0  0  0
 21 22  1  0  0  0
 21 29  1  0  0  0
 22 23  1  0  0  0
 22 30  1  0  0  0
 22 31  1  0  0  0
 23 24  1  0  0  0
 23 32  1  0  0  0
 23 33  1  0  0  0
 34 38  1  0  0  0
 35 36  1  0  0  0
 35 40  2  0  0  0
 35 41  1  0  0  0
 36 37  2  0  0  0
 36 42  1  0  0  0
 37 38  1  0  0  0
 37 43  1  0  0  0
 38 39  2  0  0  0
 39 40  1  0  0  0
 39 44  1  0  0  0
 40 45  1  0  0  0
M  END
> <s_m_entry_id>
1

> <s_m_entry_name>
lig_p38a_2t.1

> <s_pdb_PDB_TITLE>
MX MODEL

> <i_pdb_PDB_Model>
1

> <r_pdb_PDB_CRYST1_a>
181.04

> <r_pdb_PDB_CRYST1_b>
135.86

> <r_pdb_PDB_CRYST1_c>
276.32

> <r_pdb_PDB_CRYST1_alpha>
90

> <r_pdb_PDB_CRYST1_beta>
90

> <r_pdb_PDB_CRYST1_gamma>
90

> <s_pdb_PDB_CRYST1_Space_Group>
P 1

> <i_pdb_PDB_CRYST1_z>
1

> <s_pdb_PDB_format_version>
3.0

> <s_m_Source_Path>
/users/home/dhahn3/src/pmx/protLig_benchmark/p38/ligands_gaff2/lig_p38a_2t

> <s_m_Source_File>
mol_gmx.pdb

> <i_m_Source_File_Index>
1

$$$$
lig_p38a_2u
                    3D
 Structure written by MMmdl.
 64 68  0  0  1  0            999 V2000
   34.5500   34.9800   21.1800 C   0  0  0  0  0  0
   34.0400   38.9800   23.7400 C   0  0  0  0  0  0
   34.8000   37.8100   21.4400 C   0  0  0  0  0  0
   35.2500   37.1300   20.2300 C   0  0  0  0  0  0
   34.3100   37.0400   22.5100 C   0  0  0  0  0  0
   34.8500   39.2100   21.6200 C   0  0  0  0  0  0
   35.1700   35.7800   20.1300 C   0  0  0  0  0  0
   34.4800   39.7900   22.7800 N   0  0  0  0  0  0
   34.3300   33.7800   21.0200 O   0  0  0  0  0  0
   34.2100   35.6200   22.3400 N   0  0  0  0  0  0
   33.9300   37.6500   23.6600 N   0  0  0  0  0  0
   33.6700   39.5700   24.9300 N   0  0  0  0  0  0
   35.7000   37.7400   19.4700 H   0  0  0  0  0  0
   35.2200   39.8600   20.8400 H   0  0  0  0  0  0
   33.7900   40.5700   24.9700 H   0  0  0  0  0  0
   31.1000   38.2400   27.4000 C   0  0  0  0  0  0
   31.6600   39.0600   26.2300 C   0  0  0  0  0  0
   33.1500   38.7500   26.0100 C   0  0  0  0  0  0
   33.9600   39.0000   27.2900 C   0  0  0  0  0  0
   33.3900   38.1900   28.4600 C   0  0  0  0  0  0
   31.9000   38.5000   28.6800 O   0  0  0  0  0  0
   31.1300   37.1600   27.1500 H   0  0  0  0  0  0
   30.0200   38.5100   27.5700 H   0  0  0  0  0  0
   31.5300   40.1500   26.4300 H   0  0  0  0  0  0
   31.0800   38.8400   25.2900 H   0  0  0  0  0  0
   33.2700   37.6900   25.7000 H   0  0  0  0  0  0
   35.0300   38.7400   27.1200 H   0  0  0  0  0  0
   33.9200   40.0900   27.5400 H   0  0  0  0  0  0
   33.5200   37.1000   28.2500 H   0  0  0  0  0  0
   33.9700   38.4100   29.4000 H   0  0  0  0  0  0
   35.6600   35.1800   19.0100 O   0  0  0  0  0  0
   37.2600   38.0600   16.4500 C   0  0  0  0  0  0
   38.0700   37.4700   17.4400 C   0  0  0  0  0  0
   37.5300   36.5000   18.3000 C   0  0  0  0  0  0
   36.1900   36.1200   18.1700 C   0  0  0  0  0  0
   35.3800   36.7000   17.1800 C   0  0  0  0  0  0
   35.9200   37.6700   16.3200 C   0  0  0  0  0  0
   37.7700   38.9800   15.6300 F   0  0  0  0  0  0
   39.1200   37.7800   17.5500 H   0  0  0  0  0  0
   38.2900   35.9500   19.2500 F   0  0  0  0  0  0
   34.3200   36.4000   17.0800 H   0  0  0  0  0  0
   35.2800   38.1300   15.5400 H   0  0  0  0  0  0
   32.9700   35.0100   25.8900 C   0  0  0  0  0  0
   33.4300   35.8000   24.6500 C   0  0  0  0  0  0
   33.7300   34.8600   23.4800 C   0  0  0  0  0  0
   34.7800   33.8000   23.8800 C   0  0  0  0  0  0
   34.3200   33.0100   25.1200 C   0  0  0  0  0  0
   34.0100   33.9600   26.2900 N   0  0  0  0  0  0
   32.0000   34.5100   25.6700 H   0  0  0  0  0  0
   32.7800   35.7100   26.7400 H   0  0  0  0  0  0
   34.3500   36.3900   24.9100 H   0  0  0  0  0  0
   32.6500   36.5400   24.3500 H   0  0  0  0  0  0
   32.8000   34.3500   23.1600 H   0  0  0  0  0  0
   34.9600   33.1000   23.0300 H   0  0  0  0  0  0
   35.7500   34.3100   24.1000 H   0  0  0  0  0  0
   33.4000   32.4300   24.8600 H   0  0  0  0  0  0
   35.1000   32.2800   25.4100 H   0  0  0  0  0  0
   33.3900   33.0200   27.6500 S   0  0  0  0  0  0
   32.9900   33.9600   28.7200 O   0  0  0  0  0  0
   31.9300   32.1500   27.1000 C   0  0  0  0  0  0
   34.4100   32.0100   28.0200 O   0  0  0  0  0  0
   32.2000   31.4400   26.3100 H   0  0  0  0  0  0
   31.4900   31.6000   27.9300 H   0  0  0  0  0  0
   31.2000   32.8600   26.7100 H   0  0  0  0  0  0
  1  7  1  0  0  0
  1  9  2  0  0  0
  1 10  1  0  0  0
  2  8  1  0  0  0
  2 11  2  0  0  0
  2 12  1  0  0  0
  3  4  1  0  0  0
  3  5  2  0  0  0
  3  6  1  0  0  0
  4  7  2  0  0  0
  4 13  1  0  0  0
  5 10  1  0  0  0
  5 11  1  0  0  0
  6  8  2  0  0  0
  6 14  1  0  0  0
  7 31  1  0  0  0
 10 45  1  0  0  0
 12 15  1  0  0  0
 12 18  1  0  0  0
 16 17  1  0  0  0
 16 21  1  0  0  0
 16 22  1  0  0  0
 16 23  1  0  0  0
 17 18  1  0  0  0
 17 24  1  0  0  0
 17 25  1  0  0  0
 18 19  1  0  0  0
 18 26  1  0  0  0
 19 20  1  0  0  0
 19 27  1  0  0  0
 19 28  1  0  0  0
 20 21  1  0  0  0
 20 29  1  0  0  0
 20 30  1  0  0  0
 31 35  1  0  0  0
 32 33  1  0  0  0
 32 37  2  0  0  0
 32 38  1  0  0  0
 33 34  2  0  0  0
 33 39  1  0  0  0
 34 35  1  0  0  0
 34 40  1  0  0  0
 35 36  2  0  0  0
 36 37  1  0  0  0
 36 41  1  0  0  0
 37 42  1  0  0  0
 43 44  1  0  0  0
 43 48  1  0  0  0
 43 49  1  0  0  0
 43 50  1  0  0  0
 44 45  1  0  0  0
 44 51  1  0  0  0
 44 52  1  0  0  0
 45 46  1  0  0  0
 45 53  1  0  0  0
 46 47  1  0  0  0
 46 54  1  0  0  0
 46 55  1  0  0  0
 47 48  1  0  0  0
 47 56  1  0  0  0
 47 57  1  0  0  0
 48 58  1  0  0  0
 58 59  2  0  0  0
 58 60  1  0  0  0
 58 61  2  0  0  0
 60 62  1  0  0  0
 60 63  1  0  0  0
 60 64  1  0  0  0
M  END
> <s_m_entry_id>
22

> <s_m_entry_name>
lig_p38a_2u.1

> <s_pdb_PDB_TITLE>
MX MODEL

> <i_pdb_PDB_Model>
1

> <r_pdb_PDB_CRYST1_a>
182

> <r_pdb_PDB_CRYST1_b>
182.5

> <r_pdb_PDB_CRYST1_c>
277.1

> <r_pdb_PDB_CRYST1_alpha>
90

> <r_pdb_PDB_CRYST1_beta>
90

> <r_pdb_PDB_CRYST1_gamma>
90

> <s_pdb_PDB_CRYST1_Space_Group>
P 1

> <i_pdb_PDB_CRYST1_z>
1

> <s_pdb_PDB_format_version>
3.0

> <s_m_Source_Path>
/users/home/dhahn3/projects/PLBenchmarks/PLBenchmarks/data/2019-12-09_p38/03_docked

> <s_m_Source_File>
lig_p38a_2u.pdb

> <i_m_Source_File_Index>
1

$$$$
lig_p38a_2v
                    3D
 Structure written by MMmdl.
 35 37  0  0  1  0            999 V2000
   34.5500   34.9800   21.1800 C   0  0  0  0  0  0
   34.0400   38.9800   23.7400 C   0  0  0  0  0  0
   33.1600   38.9300   26.1300 C   0  0  0  0  0  0
   34.8000   37.8100   21.4400 C   0  0  0  0  0  0
   35.2500   37.1300   20.2300 C   0  0  0  0  0  0
   34.3100   37.0400   22.5100 C   0  0  0  0  0  0
   34.8500   39.2100   21.6200 C   0  0  0  0  0  0
   35.1700   35.7800   20.1300 C   0  0  0  0  0  0
   33.6700   34.8300   23.4600 C   0  0  0  0  0  0
   34.4800   39.7900   22.7800 N   0  0  0  0  0  0
   34.3300   33.7800   21.0200 O   0  0  0  0  0  0
   34.2100   35.6200   22.3400 N   0  0  0  0  0  0
   33.9300   37.6500   23.6600 N   0  0  0  0  0  0
   33.6700   39.5700   24.9300 N   0  0  0  0  0  0
   33.4900   37.8900   26.1500 H   0  0  0  0  0  0
   35.7000   37.7400   19.4700 H   0  0  0  0  0  0
   35.2200   39.8600   20.8400 H   0  0  0  0  0  0
   33.4500   35.4700   24.3200 H   0  0  0  0  0  0
   32.7400   34.3500   23.1600 H   0  0  0  0  0  0
   34.3400   34.0600   23.8300 H   0  0  0  0  0  0
   33.7900   40.5700   24.9700 H   0  0  0  0  0  0
   33.5300   39.4600   27.0100 H   0  0  0  0  0  0
   32.0700   38.9700   26.1300 H   0  0  0  0  0  0
   35.6600   35.1800   19.0100 O   0  0  0  0  0  0
   37.2600   38.0600   16.4500 C   0  0  0  0  0  0
   38.0800   37.4500   17.4200 C   0  0  0  0  0  0
   37.5400   36.4800   18.2800 C   0  0  0  0  0  0
   36.1900   36.1200   18.1700 C   0  0  0  0  0  0
   35.3700   36.7300   17.2100 C   0  0  0  0  0  0
   35.9100   37.7000   16.3500 C   0  0  0  0  0  0
   37.7700   38.9800   15.6300 F   0  0  0  0  0  0
   39.1400   37.7300   17.5000 H   0  0  0  0  0  0
   38.3100   35.9000   19.2000 F   0  0  0  0  0  0
   34.3100   36.4400   17.1200 H   0  0  0  0  0  0
   35.2700   38.1800   15.5900 H   0  0  0  0  0  0
  1  8  1  0  0  0
  1 11  2  0  0  0
  1 12  1  0  0  0
  2 10  1  0  0  0
  2 13  2  0  0  0
  2 14  1  0  0  0
  3 14  1  0  0  0
  3 15  1  0  0  0
  3 22  1  0  0  0
  3 23  1  0  0  0
  4  5  1  0  0  0
  4  6  2  0  0  0
  4  7  1  0  0  0
  5  8  2  0  0  0
  5 16  1  0  0  0
  6 12  1  0  0  0
  6 13  1  0  0  0
  7 10  2  0  0  0
  7 17  1  0  0  0
  8 24  1  0  0  0
  9 12  1  0  0  0
  9 18  1  0  0  0
  9 19  1  0  0  0
  9 20  1  0  0  0
 14 21  1  0  0  0
 24 28  1  0  0  0
 25 26  1  0  0  0
 25 30  2  0  0  0
 25 31  1  0  0  0
 26 27  2  0  0  0
 26 32  1  0  0  0
 27 28  1  0  0  0
 27 33  1  0  0  0
 28 29  2  0  0  0
 29 30  1  0  0  0
 29 34  1  0  0  0
 30 35  1  0  0  0
M  END
> <s_m_entry_id>
23

> <s_m_entry_name>
lig_p38a_2v.1

> <s_pdb_PDB_TITLE>
MX MODEL

> <i_pdb_PDB_Model>
1

> <r_pdb_PDB_CRYST1_a>
141.46

> <r_pdb_PDB_CRYST1_b>
135.86

> <r_pdb_PDB_CRYST1_c>
228.52

> <r_pdb_PDB_CRYST1_alpha>
90

> <r_pdb_PDB_CRYST1_beta>
90

> <r_pdb_PDB_CRYST1_gamma>
90

> <s_pdb_PDB_CRYST1_Space_Group>
P 1

> <i_pdb_PDB_CRYST1_z>
1

> <s_pdb_PDB_format_version>
3.0

> <s_m_Source_Path>
/users/home/dhahn3/projects/PLBenchmarks/PLBenchmarks/data/2019-12-09_p38/03_docked

> <s_m_Source_File>
lig_p38a_2v.pdb

> <i_m_Source_File_Index>
1

$$$$
lig_p38a_2x
                    3D
 Structure written by MMmdl.
 43 46  0  0  1  0            999 V2000
   34.5500   34.9800   21.1800 C   0  0  0  0  0  0
   34.0400   38.9800   23.7400 C   0  0  0  0  0  0
   34.8000   37.8100   21.4400 C   0  0  0  0  0  0
   35.2500   37.1300   20.2300 C   0  0  0  0  0  0
   34.3100   37.0400   22.5100 C   0  0  0  0  0  0
   34.8500   39.2100   21.6200 C   0  0  0  0  0  0
   35.1700   35.7800   20.1300 C   0  0  0  0  0  0
   33.6700   34.8300   23.4600 C   0  0  0  0  0  0
   34.4800   39.7900   22.7800 N   0  0  0  0  0  0
   34.3300   33.7800   21.0200 O   0  0  0  0  0  0
   34.2100   35.6200   22.3400 N   0  0  0  0  0  0
   33.9300   37.6500   23.6600 N   0  0  0  0  0  0
   33.6700   39.5700   24.9300 N   0  0  0  0  0  0
   35.7000   37.7400   19.4700 H   0  0  0  0  0  0
   35.2200   39.8600   20.8400 H   0  0  0  0  0  0
   33.4200   35.4700   24.3100 H   0  0  0  0  0  0
   32.7600   34.3200   23.1500 H   0  0  0  0  0  0
   34.3600   34.0800   23.8500 H   0  0  0  0  0  0
   33.7900   40.5700   24.9700 H   0  0  0  0  0  0
   33.1500   38.7500   26.0100 C   0  0  2  0  0  0
   31.7200   39.1700   26.3800 C   0  0  0  0  0  0
   31.6400   38.8800   27.8800 C   0  0  0  0  0  0
   33.0100   39.3500   28.3900 O   0  0  0  0  0  0
   33.9800   38.8900   27.3000 C   0  0  0  0  0  0
   33.1600   37.6900   25.6600 H   0  0  0  0  0  0
   30.9400   38.6200   25.8000 H   0  0  0  0  0  0
   31.5900   40.2600   26.2100 H   0  0  0  0  0  0
   30.7900   39.4000   28.3800 H   0  0  0  0  0  0
   31.5300   37.7800   28.0600 H   0  0  0  0  0  0
   34.4200   37.8900   27.5700 H   0  0  0  0  0  0
   34.8300   39.6000   27.1800 H   0  0  0  0  0  0
   35.6600   35.1800   19.0100 O   0  0  0  0  0  0
   37.2600   38.0600   16.4500 C   0  0  0  0  0  0
   38.0600   37.4800   17.4500 C   0  0  0  0  0  0
   37.5200   36.5100   18.3100 C   0  0  0  0  0  0
   36.1900   36.1200   18.1700 C   0  0  0  0  0  0
   35.3800   36.6900   17.1700 C   0  0  0  0  0  0
   35.9200   37.6600   16.3100 C   0  0  0  0  0  0
   37.7700   38.9800   15.6300 F   0  0  0  0  0  0
   39.1200   37.8000   17.5600 H   0  0  0  0  0  0
   38.2900   35.9700   19.2600 F   0  0  0  0  0  0
   34.3300   36.3800   17.0600 H   0  0  0  0  0  0
   35.2900   38.1100   15.5300 H   0  0  0  0  0  0
  1  7  1  0  0  0
  1 10  2  0  0  0
  1 11  1  0  0  0
  2  9  1  0  0  0
  2 12  2  0  0  0
  2 13  1  0  0  0
  3  4  1  0  0  0
  3  5  2  0  0  0
  3  6  1  0  0  0
  4  7  2  0  0  0
  4 14  1  0  0  0
  5 11  1  0  0  0
  5 12  1  0  0  0
  6  9  2  0  0  0
  6 15  1  0  0  0
  7 32  1  0  0  0
  8 11  1  0  0  0
  8 16  1  0  0  0
  8 17  1  0  0  0
  8 18  1  0  0  0
 13 19  1  0  0  0
 13 20  1  0  0  0
 20 21  1  0  0  0
 20 24  1  0  0  0
 20 25  1  0  0  0
 21 22  1  0  0  0
 21 26  1  0  0  0
 21 27  1  0  0  0
 22 23  1  0  0  0
 22 28  1  0  0  0
 22 29  1  0  0  0
 23 24  1  0  0  0
 24 30  1  0  0  0
 24 31  1  0  0  0
 32 36  1  0  0  0
 33 34  1  0  0  0
 33 38  2  0  0  0
 33 39  1  0  0  0
 34 35  2  0  0  0
 34 40  1  0  0  0
 35 36  1  0  0  0
 35 41  1  0  0  0
 36 37  2  0  0  0
 37 38  1  0  0  0
 37 42  1  0  0  0
 38 43  1  0  0  0
M  END
> <s_m_entry_id>
24

> <s_m_entry_name>
lig_p38a_2x.1

> <s_pdb_PDB_TITLE>
MX MODEL

> <i_pdb_PDB_Model>
1

> <r_pdb_PDB_CRYST1_a>
166.52

> <r_pdb_PDB_CRYST1_b>
135.86

> <r_pdb_PDB_CRYST1_c>
257.2

> <r_pdb_PDB_CRYST1_alpha>
90

> <r_pdb_PDB_CRYST1_beta>
90

> <r_pdb_PDB_CRYST1_gamma>
90

> <s_pdb_PDB_CRYST1_Space_Group>
P 1

> <i_pdb_PDB_CRYST1_z>
1

> <s_pdb_PDB_format_version>
3.0

> <s_m_Source_Path>
/users/home/dhahn3/projects/PLBenchmarks/PLBenchmarks/data/2019-12-09_p38/03_docked

> <s_m_Source_File>
lig_p38a_2x.pdb

> <i_m_Source_File_Index>
1

$$$$
lig_p38a_2y
                    3D
 Structure written by MMmdl.
 45 47  0  0  1  0            999 V2000
   34.5500   34.9800   21.1800 C   0  0  0  0  0  0
   34.0400   38.9800   23.7400 C   0  0  0  0  0  0
   34.8000   37.8100   21.4400 C   0  0  0  0  0  0
   35.2500   37.1300   20.2300 C   0  0  0  0  0  0
   34.3100   37.0400   22.5100 C   0  0  0  0  0  0
   34.8500   39.2100   21.6200 C   0  0  0  0  0  0
   35.1700   35.7800   20.1300 C   0  0  0  0  0  0
   33.6700   34.8300   23.4600 C   0  0  0  0  0  0
   34.4800   39.7900   22.7800 N   0  0  0  0  0  0
   34.3300   33.7800   21.0200 O   0  0  0  0  0  0
   34.2100   35.6200   22.3400 N   0  0  0  0  0  0
   33.9300   37.6500   23.6600 N   0  0  0  0  0  0
   33.6700   39.5700   24.9300 N   0  0  0  0  0  0
   35.7000   37.7400   19.4700 H   0  0  0  0  0  0
   35.2200   39.8600   20.8400 H   0  0  0  0  0  0
   33.3300   35.4800   24.2700 H   0  0  0  0  0  0
   32.8200   34.2400   23.1200 H   0  0  0  0  0  0
   34.3900   34.1500   23.9200 H   0  0  0  0  0  0
   33.7900   40.5700   24.9700 H   0  0  0  0  0  0
   33.1200   38.7100   26.0600 C   0  0  0  0  0  0
   32.0900   39.0000   26.2700 H   0  0  0  0  0  0
   33.1600   37.6600   25.7700 H   0  0  0  0  0  0
   33.9800   38.9300   27.3200 C   0  0  0  0  0  0
   33.4200   38.0600   28.4700 C   0  0  0  0  0  0
   35.3100   38.5600   27.0600 O   0  0  0  0  0  0
   33.9300   40.4100   27.7300 C   0  0  0  0  0  0
   34.0300   38.2200   29.3700 H   0  0  0  0  0  0
   32.3900   38.3500   28.6800 H   0  0  0  0  0  0
   33.4600   37.0100   28.1900 H   0  0  0  0  0  0
   34.5300   40.5700   28.6300 H   0  0  0  0  0  0
   34.3200   41.0300   26.9200 H   0  0  0  0  0  0
   32.8900   40.7000   27.9300 H   0  0  0  0  0  0
   35.8400   38.7000   27.8500 H   0  0  0  0  0  0
   35.6600   35.1800   19.0100 O   0  0  0  0  0  0
   37.2600   38.0600   16.4500 C   0  0  0  0  0  0
   38.0700   37.4600   17.4300 C   0  0  0  0  0  0
   37.5300   36.4900   18.2900 C   0  0  0  0  0  0
   36.1900   36.1200   18.1700 C   0  0  0  0  0  0
   35.3700   36.7200   17.2000 C   0  0  0  0  0  0
   35.9100   37.6900   16.3400 C   0  0  0  0  0  0
   37.7700   38.9800   15.6300 F   0  0  0  0  0  0
   39.1300   37.7500   17.5200 H   0  0  0  0  0  0
   38.3100   35.9200   19.2100 F   0  0  0  0  0  0
   34.3100   36.4300   17.1100 H   0  0  0  0  0  0
   35.2700   38.1600   15.5700 H   0  0  0  0  0  0
  1  7  1  0  0  0
  1 10  2  0  0  0
  1 11  1  0  0  0
  2  9  1  0  0  0
  2 12  2  0  0  0
  2 13  1  0  0  0
  3  4  1  0  0  0
  3  5  2  0  0  0
  3  6  1  0  0  0
  4  7  2  0  0  0
  4 14  1  0  0  0
  5 11  1  0  0  0
  5 12  1  0  0  0
  6  9  2  0  0  0
  6 15  1  0  0  0
  7 34  1  0  0  0
  8 11  1  0  0  0
  8 16  1  0  0  0
  8 17  1  0  0  0
  8 18  1  0  0  0
 13 19  1  0  0  0
 13 20  1  0  0  0
 20 21  1  0  0  0
 20 22  1  0  0  0
 20 23  1  0  0  0
 23 24  1  0  0  0
 23 25  1  0  0  0
 23 26  1  0  0  0
 24 27  1  0  0  0
 24 28  1  0  0  0
 24 29  1  0  0  0
 25 33  1  0  0  0
 26 30  1  0  0  0
 26 31  1  0  0  0
 26 32  1  0  0  0
 34 38  1  0  0  0
 35 36  1  0  0  0
 35 40  2  0  0  0
 35 41  1  0  0  0
 36 37  2  0  0  0
 36 42  1  0  0  0
 37 38  1  0  0  0
 37 43  1  0  0  0
 38 39  2  0  0  0
 39 40  1  0  0  0
 39 44  1  0  0  0
 40 45  1  0  0  0
M  END
> <s_m_entry_id>
25

> <s_m_entry_name>
lig_p38a_2y.1

> <s_pdb_PDB_TITLE>
MX MODEL

> <i_pdb_PDB_Model>
1

> <r_pdb_PDB_CRYST1_a>
140.82

> <r_pdb_PDB_CRYST1_b>
145

> <r_pdb_PDB_CRYST1_c>
275.94

> <r_pdb_PDB_CRYST1_alpha>
90

> <r_pdb_PDB_CRYST1_beta>
90

> <r_pdb_PDB_CRYST1_gamma>
90

> <s_pdb_PDB_CRYST1_Space_Group>
P 1

> <i_pdb_PDB_CRYST1_z>
1

> <s_pdb_PDB_format_version>
3.0

> <s_m_Source_Path>
/users/home/dhahn3/projects/PLBenchmarks/PLBenchmarks/data/2019-12-09_p38/03_docked

> <s_m_Source_File>
lig_p38a_2y.pdb

> <i_m_Source_File_Index>
1

$$$$
lig_p38a_2z
                    3D
 Structure written by MMmdl.
 45 47  0  0  1  0            999 V2000
   34.5500   34.9800   21.1800 C   0  0  0  0  0  0
   34.0400   38.9800   23.7400 C   0  0  0  0  0  0
   34.8000   37.8100   21.4400 C   0  0  0  0  0  0
   35.2500   37.1300   20.2300 C   0  0  0  0  0  0
   34.3100   37.0400   22.5100 C   0  0  0  0  0  0
   34.8500   39.2100   21.6200 C   0  0  0  0  0  0
   35.1700   35.7800   20.1300 C   0  0  0  0  0  0
   33.6700   34.8300   23.4600 C   0  0  0  0  0  0
   34.4800   39.7900   22.7800 N   0  0  0  0  0  0
   34.3300   33.7800   21.0200 O   0  0  0  0  0  0
   34.2100   35.6200   22.3400 N   0  0  0  0  0  0
   33.9300   37.6500   23.6600 N   0  0  0  0  0  0
   33.6700   39.5700   24.9300 N   0  0  0  0  0  0
   35.7000   37.7400   19.4700 H   0  0  0  0  0  0
   35.2200   39.8600   20.8400 H   0  0  0  0  0  0
   33.3800   35.4800   24.3000 H   0  0  0  0  0  0
   32.7800   34.2900   23.1400 H   0  0  0  0  0  0
   34.3700   34.1100   23.8800 H   0  0  0  0  0  0
   33.7900   40.5700   24.9700 H   0  0  0  0  0  0
   33.1200   38.7100   26.0600 C   0  0  0  0  0  0
   34.0000   38.8900   27.3100 C   0  0  0  0  0  0
   31.6800   39.1500   26.3800 C   0  0  0  0  0  0
   33.1300   37.2300   25.6400 C   0  0  0  0  0  0
   31.2900   38.5300   27.1900 H   0  0  0  0  0  0
   31.6800   40.1900   26.6800 H   0  0  0  0  0  0
   31.0600   39.0200   25.5000 H   0  0  0  0  0  0
   32.7400   36.6200   26.4500 H   0  0  0  0  0  0
   32.5100   37.1000   24.7500 H   0  0  0  0  0  0
   34.1600   36.9200   25.4100 H   0  0  0  0  0  0
   33.5000   38.1000   28.3600 O   0  0  0  0  0  0
   35.0300   38.5900   27.0900 H   0  0  0  0  0  0
   34.0000   39.9400   27.6100 H   0  0  0  0  0  0
   34.0500   38.2200   29.1400 H   0  0  0  0  0  0
   35.6600   35.1800   19.0100 O   0  0  0  0  0  0
   37.2600   38.0600   16.4500 C   0  0  0  0  0  0
   38.0700   37.4700   17.4400 C   0  0  0  0  0  0
   37.5300   36.4900   18.3000 C   0  0  0  0  0  0
   36.1900   36.1200   18.1700 C   0  0  0  0  0  0
   35.3800   36.7100   17.1900 C   0  0  0  0  0  0
   35.9100   37.6800   16.3300 C   0  0  0  0  0  0
   37.7700   38.9800   15.6300 F   0  0  0  0  0  0
   39.1300   37.7600   17.5300 H   0  0  0  0  0  0
   38.3000   35.9300   19.2300 F   0  0  0  0  0  0
   34.3200   36.4100   17.0900 H   0  0  0  0  0  0
   35.2800   38.1400   15.5600 H   0  0  0  0  0  0
  1  7  1  0  0  0
  1 10  2  0  0  0
  1 11  1  0  0  0
  2  9  1  0  0  0
  2 12  2  0  0  0
  2 13  1  0  0  0
  3  4  1  0  0  0
  3  5  2  0  0  0
  3  6  1  0  0  0
  4  7  2  0  0  0
  4 14  1  0  0  0
  5 11  1  0  0  0
  5 12  1  0  0  0
  6  9  2  0  0  0
  6 15  1  0  0  0
  7 34  1  0  0  0
  8 11  1  0  0  0
  8 16  1  0  0  0
  8 17  1  0  0  0
  8 18  1  0  0  0
 13 19  1  0  0  0
 13 20  1  0  0  0
 20 21  1  0  0  0
 20 22  1  0  0  0
 20 23  1  0  0  0
 21 30  1  0  0  0
 21 31  1  0  0  0
 21 32  1  0  0  0
 22 24  1  0  0  0
 22 25  1  0  0  0
 22 26  1  0  0  0
 23 27  1  0  0  0
 23 28  1  0  0  0
 23 29  1  0  0  0
 30 33  1  0  0  0
 34 38  1  0  0  0
 35 36  1  0  0  0
 35 40  2  0  0  0
 35 41  1  0  0  0
 36 37  2  0  0  0
 36 42  1  0  0  0
 37 38  1  0  0  0
 37 43  1  0  0  0
 38 39  2  0  0  0
 39 40  1  0  0  0
 39 44  1  0  0  0
 40 45  1  0  0  0
M  END
> <s_m_entry_id>
26

> <s_m_entry_name>
lig_p38a_2z.1

> <s_pdb_PDB_TITLE>
MX MODEL

> <i_pdb_PDB_Model>
1

> <r_pdb_PDB_CRYST1_a>
161.4

> <r_pdb_PDB_CRYST1_b>
135.86

> <r_pdb_PDB_CRYST1_c>
271.74

> <r_pdb_PDB_CRYST1_alpha>
90

> <r_pdb_PDB_CRYST1_beta>
90

> <r_pdb_PDB_CRYST1_gamma>
90

> <s_pdb_PDB_CRYST1_Space_Group>
P 1

> <i_pdb_PDB_CRYST1_z>
1

> <s_pdb_PDB_format_version>
3.0

> <s_m_Source_Path>
/users/home/dhahn3/projects/PLBenchmarks/PLBenchmarks/data/2019-12-09_p38/03_docked

> <s_m_Source_File>
lig_p38a_2z.pdb

> <i_m_Source_File_Index>
1

$$$$
lig_p38a_3fln
                    3D
 Structure written by MMmdl.
 46 49  0  0  1  0            999 V2000
   34.5500   34.9800   21.1800 C   0  0  0  0  0  0
   34.0400   38.9800   23.7400 C   0  0  0  0  0  0
   34.8000   37.8100   21.4400 C   0  0  0  0  0  0
   35.2500   37.1300   20.2300 C   0  0  0  0  0  0
   34.3100   37.0400   22.5100 C   0  0  0  0  0  0
   34.8500   39.2100   21.6200 C   0  0  0  0  0  0
   35.1700   35.7800   20.1300 C   0  0  0  0  0  0
   33.6700   34.8300   23.4600 C   0  0  0  0  0  0
   34.4800   39.7900   22.7800 N   0  0  0  0  0  0
   34.3300   33.7800   21.0200 O   0  0  0  0  0  0
   34.2100   35.6200   22.3400 N   0  0  0  0  0  0
   33.9300   37.6500   23.6600 N   0  0  0  0  0  0
   33.6700   39.5700   24.9300 N   0  0  0  0  0  0
   35.7000   37.7400   19.4700 H   0  0  0  0  0  0
   35.2200   39.8600   20.8400 H   0  0  0  0  0  0
   33.4900   35.4600   24.3400 H   0  0  0  0  0  0
   32.7200   34.3800   23.1700 H   0  0  0  0  0  0
   34.3300   34.0300   23.8000 H   0  0  0  0  0  0
   33.7900   40.5700   24.9700 H   0  0  0  0  0  0
   31.1000   38.2600   27.4100 C   0  0  0  0  0  0
   31.6600   39.0700   26.2300 C   0  0  0  0  0  0
   33.1500   38.7500   26.0100 C   0  0  0  0  0  0
   33.9700   38.9900   27.2900 C   0  0  0  0  0  0
   33.4000   38.1800   28.4600 C   0  0  0  0  0  0
   31.9200   38.4900   28.6900 O   0  0  0  0  0  0
   31.1200   37.1700   27.1500 H   0  0  0  0  0  0
   30.0300   38.5300   27.5800 H   0  0  0  0  0  0
   31.5500   40.1600   26.4500 H   0  0  0  0  0  0
   31.0800   38.8600   25.3100 H   0  0  0  0  0  0
   33.2600   37.6900   25.6900 H   0  0  0  0  0  0
   35.0400   38.7200   27.1100 H   0  0  0  0  0  0
   33.9400   40.0800   27.5400 H   0  0  0  0  0  0
   33.5200   37.0900   28.2500 H   0  0  0  0  0  0
   33.9900   38.3900   29.3900 H   0  0  0  0  0  0
   35.6600   35.1800   19.0100 O   0  0  0  0  0  0
   37.2600   38.0600   16.4500 C   0  0  0  0  0  0
   38.0600   37.4900   17.4600 C   0  0  0  0  0  0
   37.5200   36.5200   18.3200 C   0  0  0  0  0  0
   36.1900   36.1200   18.1700 C   0  0  0  0  0  0
   35.3900   36.6800   17.1600 C   0  0  0  0  0  0
   35.9200   37.6500   16.3000 C   0  0  0  0  0  0
   37.7700   38.9800   15.6300 F   0  0  0  0  0  0
   39.1100   37.8100   17.5800 H   0  0  0  0  0  0
   38.2800   35.9900   19.2800 F   0  0  0  0  0  0
   34.3400   36.3600   17.0500 H   0  0  0  0  0  0
   35.3000   38.0900   15.5100 H   0  0  0  0  0  0
  1  7  1  0  0  0
  1 10  2  0  0  0
  1 11  1  0  0  0
  2  9  1  0  0  0
  2 12  2  0  0  0
  2 13  1  0  0  0
  3  4  1  0  0  0
  3  5  2  0  0  0
  3  6  1  0  0  0
  4  7  2  0  0  0
  4 14  1  0  0  0
  5 11  1  0  0  0
  5 12  1  0  0  0
  6  9  2  0  0  0
  6 15  1  0  0  0
  7 35  1  0  0  0
  8 11  1  0  0  0
  8 16  1  0  0  0
  8 17  1  0  0  0
  8 18  1  0  0  0
 13 19  1  0  0  0
 13 22  1  0  0  0
 20 21  1  0  0  0
 20 25  1  0  0  0
 20 26  1  0  0  0
 20 27  1  0  0  0
 21 22  1  0  0  0
 21 28  1  0  0  0
 21 29  1  0  0  0
 22 23  1  0  0  0
 22 30  1  0  0  0
 23 24  1  0  0  0
 23 31  1  0  0  0
 23 32  1  0  0  0
 24 25  1  0  0  0
 24 33  1  0  0  0
 24 34  1  0  0  0
 35 39  1  0  0  0
 36 37  1  0  0  0
 36 41  2  0  0  0
 36 42  1  0  0  0
 37 38  2  0  0  0
 37 43  1  0  0  0
 38 39  1  0  0  0
 38 44  1  0  0  0
 39 40  2  0  0  0
 40 41  1  0  0  0
 40 45  1  0  0  0
 41 46  1  0  0  0
M  END
> <s_m_entry_id>
27

> <s_m_entry_name>
lig_p38a_3fln.1

> <s_pdb_PDB_TITLE>
MX MODEL

> <i_pdb_PDB_Model>
1

> <r_pdb_PDB_CRYST1_a>
181.6

> <r_pdb_PDB_CRYST1_b>
135.86

> <r_pdb_PDB_CRYST1_c>
277.56

> <r_pdb_PDB_CRYST1_alpha>
90

> <r_pdb_PDB_CRYST1_beta>
90

> <r_pdb_PDB_CRYST1_gamma>
90

> <s_pdb_PDB_CRYST1_Space_Group>
P 1

> <i_pdb_PDB_CRYST1_z>
1

> <s_pdb_PDB_format_version>
3.0

> <s_m_Source_Path>
/users/home/dhahn3/projects/PLBenchmarks/PLBenchmarks/data/2019-12-09_p38/03_docked

> <s_m_Source_File>
lig_p38a_3fln.pdb

> <i_m_Source_File_Index>
1

$$$$
lig_p38a_3flq
                    3D
 Structure written by MMmdl.
 47 49  0  0  1  0            999 V2000
   34.0400   38.9800   23.7400 C   0  0  0  0  0  0
   34.8000   37.8100   21.4400 C   0  0  0  0  0  0
   35.2500   37.1300   20.2300 C   0  0  0  0  0  0
   34.3100   37.0400   22.5100 C   0  0  0  0  0  0
   35.1700   35.7800   20.1300 C   0  0  0  0  0  0
   34.2100   35.6200   22.3400 N   0  0  0  0  0  0
   34.5500   34.9800   21.1800 C   0  0  0  0  0  0
   34.3300   33.7800   21.0200 O   0  0  0  0  0  0
   34.8500   39.2100   21.6200 C   0  0  0  0  0  0
   34.4800   39.7900   22.7800 N   0  0  0  0  0  0
   33.9300   37.6500   23.6600 N   0  0  0  0  0  0
   33.6600   34.8300   23.4500 C   0  0  0  0  0  0
   33.6700   39.5700   24.9300 N   0  0  0  0  0  0
   35.6900   37.7400   19.4700 H   0  0  0  0  0  0
   35.2100   39.8600   20.8300 H   0  0  0  0  0  0
   34.2800   33.9700   23.7200 H   0  0  0  0  0  0
   33.5900   35.4200   24.3700 H   0  0  0  0  0  0
   32.6600   34.4700   23.2000 H   0  0  0  0  0  0
   33.8300   40.5600   24.9800 H   0  0  0  0  0  0
   33.0700   38.7200   26.0400 C   0  0  1  0  0  0
   33.9200   38.8700   27.3100 C   0  0  0  0  0  0
   31.6300   39.2000   26.3300 C   0  0  0  0  0  0
   33.0500   37.6800   25.7300 H   0  0  0  0  0  0
   33.4900   38.2600   28.1100 H   0  0  0  0  0  0
   34.9400   38.5300   27.1100 H   0  0  0  0  0  0
   33.9400   39.9100   27.6200 H   0  0  0  0  0  0
   31.2000   38.5900   27.1200 H   0  0  0  0  0  0
   31.6500   40.2400   26.6300 H   0  0  0  0  0  0
   30.6400   39.0300   24.8500 S   0  0  0  0  0  0
   31.3400   39.7300   23.7400 O   0  0  0  0  0  0
   30.5600   37.2800   24.4400 C   0  0  0  0  0  0
   29.2700   39.4900   25.1500 O   0  0  0  0  0  0
   30.0500   36.7500   25.2400 H   0  0  0  0  0  0
   30.0100   37.1600   23.5100 H   0  0  0  0  0  0
   31.5700   36.8900   24.3200 H   0  0  0  0  0  0
   35.6600   35.1500   19.0200 O   0  0  0  0  0  0
   37.3100   37.9800   16.4300 C   0  0  0  0  0  0
   38.0700   37.4700   17.5000 C   0  0  0  0  0  0
   37.5200   36.5200   18.3700 C   0  0  0  0  0  0
   36.2000   36.0800   18.1700 C   0  0  0  0  0  0
   35.4300   36.5900   17.1100 C   0  0  0  0  0  0
   35.9900   37.5400   16.2400 C   0  0  0  0  0  0
   37.8400   38.8800   15.6100 F   0  0  0  0  0  0
   39.1100   37.8200   17.6500 H   0  0  0  0  0  0
   38.2400   36.0300   19.3800 F   0  0  0  0  0  0
   34.4000   36.2400   16.9600 H   0  0  0  0  0  0
   35.3900   37.9400   15.4000 H   0  0  0  0  0  0
  1 10  1  0  0  0
  1 11  2  0  0  0
  1 13  1  0  0  0
  2  3  1  0  0  0
  2  4  2  0  0  0
  2  9  1  0  0  0
  3  5  2  0  0  0
  3 14  1  0  0  0
  4  6  1  0  0  0
  4 11  1  0  0  0
  5  7  1  0  0  0
  5 36  1  0  0  0
  6  7  1  0  0  0
  6 12  1  0  0  0
  7  8  2  0  0  0
  9 10  2  0  0  0
  9 15  1  0  0  0
 12 16  1  0  0  0
 12 17  1  0  0  0
 12 18  1  0  0  0
 13 19  1  0  0  0
 13 20  1  0  0  0
 20 21  1  0  0  0
 20 22  1  0  0  0
 20 23  1  0  0  0
 21 24  1  0  0  0
 21 25  1  0  0  0
 21 26  1  0  0  0
 22 27  1  0  0  0
 22 28  1  0  0  0
 22 29  1  0  0  0
 29 30  2  0  0  0
 29 31  1  0  0  0
 29 32  2  0  0  0
 31 33  1  0  0  0
 31 34  1  0  0  0
 31 35  1  0  0  0
 36 40  1  0  0  0
 37 38  1  0  0  0
 37 42  2  0  0  0
 37 43  1  0  0  0
 38 39  2  0  0  0
 38 44  1  0  0  0
 39 40  1  0  0  0
 39 45  1  0  0  0
 40 41  2  0  0  0
 41 42  1  0  0  0
 41 46  1  0  0  0
 42 47  1  0  0  0
M  END
> <s_m_entry_id>
28

> <s_m_entry_name>
lig_p38a_3flq.1

> <s_pdb_PDB_TITLE>
MX MODEL

> <i_pdb_PDB_Model>
1

> <r_pdb_PDB_CRYST1_a>
196.76

> <r_pdb_PDB_CRYST1_b>
135.72

> <r_pdb_PDB_CRYST1_c>
254.16

> <r_pdb_PDB_CRYST1_alpha>
90

> <r_pdb_PDB_CRYST1_beta>
90

> <r_pdb_PDB_CRYST1_gamma>
90

> <s_pdb_PDB_CRYST1_Space_Group>
P 1

> <i_pdb_PDB_CRYST1_z>
1

> <s_pdb_PDB_format_version>
3.0

> <s_m_Source_Path>
/users/home/dhahn3/projects/PLBenchmarks/PLBenchmarks/data/2019-12-09_p38/03_docked

> <s_m_Source_File>
lig_p38a_3flq.pdb

> <i_m_Source_File_Index>
1

$$$$
lig_p38a_3flw
                    3D
 Structure written by MMmdl.
 49 51  0  0  1  0            999 V2000
   33.7500   34.7800   23.4700 C   0  0  0  0  0  0
   35.1700   35.7800   20.1300 C   0  0  0  0  0  0
   35.2500   37.1300   20.2300 C   0  0  0  0  0  0
   34.8000   37.8100   21.4400 C   0  0  0  0  0  0
   34.8500   39.2100   21.6200 C   0  0  0  0  0  0
   34.4800   39.7900   22.7800 N   0  0  0  0  0  0
   34.5500   34.9800   21.1800 C   0  0  0  0  0  0
   34.3300   33.7800   21.0200 O   0  0  0  0  0  0
   34.2100   35.6200   22.3400 N   0  0  0  0  0  0
   34.3100   37.0400   22.5100 C   0  0  0  0  0  0
   33.9300   37.6500   23.6600 N   0  0  0  0  0  0
   34.0400   38.9800   23.7400 C   0  0  0  0  0  0
   33.6700   39.5700   24.9300 N   0  0  0  0  0  0
   33.3800   35.3500   24.3200 H   0  0  0  0  0  0
   32.9300   34.1300   23.1600 H   0  0  0  0  0  0
   34.5700   34.1600   23.8300 H   0  0  0  0  0  0
   35.7100   37.7300   19.4700 H   0  0  0  0  0  0
   35.2300   39.8600   20.8400 H   0  0  0  0  0  0
   33.8200   40.5600   24.9800 H   0  0  0  0  0  0
   33.0800   38.7200   26.0400 C   0  0  0  0  0  0
   33.9700   38.8300   27.3000 C   0  0  0  0  0  0
   31.6600   39.2200   26.3700 C   0  0  0  0  0  0
   33.0300   37.6800   25.7200 H   0  0  0  0  0  0
   33.5400   38.2200   28.0900 H   0  0  0  0  0  0
   35.3800   38.3200   26.9700 C   0  0  0  0  0  0
   34.0200   39.8700   27.6200 H   0  0  0  0  0  0
   31.2400   38.6200   27.1700 H   0  0  0  0  0  0
   31.7100   40.2600   26.7000 H   0  0  0  0  0  0
   30.7700   39.1200   25.1200 C   0  0  0  0  0  0
   29.7700   39.4800   25.3600 H   0  0  0  0  0  0
   31.2000   39.7300   24.3200 H   0  0  0  0  0  0
   30.7100   37.7700   24.7000 O   0  0  0  0  0  0
   36.3400   39.0900   27.6600 O   0  0  0  0  0  0
   35.4800   37.2700   27.2600 H   0  0  0  0  0  0
   35.5600   38.4100   25.8900 H   0  0  0  0  0  0
   36.8800   39.5800   27.0400 H   0  0  0  0  0  0
   31.5900   37.4000   24.7000 H   0  0  0  0  0  0
   35.6600   35.1500   19.0200 O   0  0  0  0  0  0
   37.3100   37.9800   16.4300 C   0  0  0  0  0  0
   38.1000   37.4000   17.4300 C   0  0  0  0  0  0
   37.5500   36.4400   18.3000 C   0  0  0  0  0  0
   36.2000   36.0800   18.1700 C   0  0  0  0  0  0
   35.4000   36.6600   17.1700 C   0  0  0  0  0  0
   35.9600   37.6100   16.3000 C   0  0  0  0  0  0
   37.8400   38.8800   15.6100 F   0  0  0  0  0  0
   39.1600   37.6800   17.5400 H   0  0  0  0  0  0
   38.3000   35.8900   19.2500 F   0  0  0  0  0  0
   34.3400   36.3700   17.0700 H   0  0  0  0  0  0
   35.3400   38.0700   15.5100 H   0  0  0  0  0  0
  1  9  1  0  0  0
  1 14  1  0  0  0
  1 15  1  0  0  0
  1 16  1  0  0  0
  2  3  2  0  0  0
  2  7  1  0  0  0
  2 38  1  0  0  0
  3  4  1  0  0  0
  3 17  1  0  0  0
  4  5  1  0  0  0
  4 10  2  0  0  0
  5  6  2  0  0  0
  5 18  1  0  0  0
  6 12  1  0  0  0
  7  8  2  0  0  0
  7  9  1  0  0  0
  9 10  1  0  0  0
 10 11  1  0  0  0
 11 12  2  0  0  0
 12 13  1  0  0  0
 13 19  1  0  0  0
 13 20  1  0  0  0
 20 21  1  0  0  0
 20 22  1  0  0  0
 20 23  1  0  0  0
 21 24  1  0  0  0
 21 25  1  0  0  0
 21 26  1  0  0  0
 22 27  1  0  0  0
 22 28  1  0  0  0
 22 29  1  0  0  0
 25 33  1  0  0  0
 25 34  1  0  0  0
 25 35  1  0  0  0
 29 30  1  0  0  0
 29 31  1  0  0  0
 29 32  1  0  0  0
 32 37  1  0  0  0
 33 36  1  0  0  0
 38 42  1  0  0  0
 39 40  1  0  0  0
 39 44  2  0  0  0
 39 45  1  0  0  0
 40 41  2  0  0  0
 40 46  1  0  0  0
 41 42  1  0  0  0
 41 47  1  0  0  0
 42 43  2  0  0  0
 43 44  1  0  0  0
 43 48  1  0  0  0
 44 49  1  0  0  0
M  END
> <s_m_entry_id>
29

> <s_m_entry_name>
lig_p38a_3flw.1

> <s_pdb_PDB_TITLE>
MX MODEL

> <i_pdb_PDB_Model>
1

> <r_pdb_PDB_CRYST1_a>
187.86

> <r_pdb_PDB_CRYST1_b>
135.76

> <r_pdb_PDB_CRYST1_c>
251.62

> <r_pdb_PDB_CRYST1_alpha>
90

> <r_pdb_PDB_CRYST1_beta>
90

> <r_pdb_PDB_CRYST1_gamma>
90

> <s_pdb_PDB_CRYST1_Space_Group>
P 1

> <i_pdb_PDB_CRYST1_z>
1

> <s_pdb_PDB_format_version>
3.0

> <s_m_Source_Path>
/users/home/dhahn3/projects/PLBenchmarks/PLBenchmarks/data/2019-12-09_p38/03_docked

> <s_m_Source_File>
lig_p38a_3flw.pdb

> <i_m_Source_File_Index>
1

$$$$
lig_p38a_3fly
                    3D
 Structure written by MMmdl.
 41 43  0  0  1  0            999 V2000
   34.8500   39.2100   21.6200 C   0  0  0  0  0  0
   34.3100   37.0400   22.5100 C   0  0  0  0  0  0
   34.4800   39.7900   22.7800 N   0  0  0  0  0  0
   34.8000   37.8100   21.4400 C   0  0  0  0  0  0
   35.2500   37.1300   20.2300 C   0  0  0  0  0  0
   35.1700   35.7800   20.1300 C   0  0  0  0  0  0
   34.5500   34.9800   21.1800 C   0  0  0  0  0  0
   34.0400   38.9800   23.7400 C   0  0  0  0  0  0
   34.3300   33.7800   21.0200 O   0  0  0  0  0  0
   34.2100   35.6200   22.3400 N   0  0  0  0  0  0
   33.7100   34.8400   23.4900 C   0  0  0  0  0  0
   33.9300   37.6500   23.6600 N   0  0  0  0  0  0
   33.6700   39.5700   24.9300 N   0  0  0  0  0  0
   35.2200   39.8500   20.8300 H   0  0  0  0  0  0
   35.7000   37.7400   19.4700 H   0  0  0  0  0  0
   34.3500   34.0100   23.7900 H   0  0  0  0  0  0
   33.6200   35.4700   24.3700 H   0  0  0  0  0  0
   32.7300   34.4300   23.2600 H   0  0  0  0  0  0
   33.8100   40.5600   24.9800 H   0  0  0  0  0  0
   33.0900   38.7200   26.0500 C   0  0  0  0  0  0
   33.9000   38.9500   27.3400 C   0  0  0  0  0  0
   31.6200   39.1100   26.2800 C   0  0  0  0  0  0
   33.1500   37.6600   25.7700 H   0  0  0  0  0  0
   33.4800   38.3400   28.1400 H   0  0  0  0  0  0
   34.9400   38.6700   27.1700 H   0  0  0  0  0  0
   33.8400   40.0000   27.6100 H   0  0  0  0  0  0
   31.2100   38.5000   27.0900 H   0  0  0  0  0  0
   31.5700   40.1600   26.5600 H   0  0  0  0  0  0
   31.0500   38.9400   25.3700 H   0  0  0  0  0  0
   35.6600   35.1500   19.0200 O   0  0  0  0  0  0
   37.0900   38.0000   16.3200 C   0  0  0  0  0  0
   37.9500   37.4400   17.2800 C   0  0  0  0  0  0
   37.4700   36.4800   18.1900 C   0  0  0  0  0  0
   36.1200   36.0800   18.1400 C   0  0  0  0  0  0
   35.2600   36.6400   17.1800 C   0  0  0  0  0  0
   35.7400   37.6000   16.2700 C   0  0  0  0  0  0
   37.5500   38.9100   15.4600 F   0  0  0  0  0  0
   39.0100   37.7600   17.3200 H   0  0  0  0  0  0
   38.2900   35.9500   19.1000 F   0  0  0  0  0  0
   34.2000   36.3300   17.1400 H   0  0  0  0  0  0
   35.0600   38.0300   15.5200 H   0  0  0  0  0  0
  1  3  1  0  0  0
  1  4  2  0  0  0
  1 14  1  0  0  0
  2  4  1  0  0  0
  2 10  1  0  0  0
  2 12  2  0  0  0
  3  8  2  0  0  0
  4  5  1  0  0  0
  5  6  2  0  0  0
  5 15  1  0  0  0
  6  7  1  0  0  0
  6 30  1  0  0  0
  7  9  2  0  0  0
  7 10  1  0  0  0
  8 12  1  0  0  0
  8 13  1  0  0  0
 10 11  1  0  0  0
 11 16  1  0  0  0
 11 17  1  0  0  0
 11 18  1  0  0  0
 13 19  1  0  0  0
 13 20  1  0  0  0
 20 21  1  0  0  0
 20 22  1  0  0  0
 20 23  1  0  0  0
 21 24  1  0  0  0
 21 25  1  0  0  0
 21 26  1  0  0  0
 22 27  1  0  0  0
 22 28  1  0  0  0
 22 29  1  0  0  0
 30 34  1  0  0  0
 31 32  1  0  0  0
 31 36  2  0  0  0
 31 37  1  0  0  0
 32 33  2  0  0  0
 32 38  1  0  0  0
 33 34  1  0  0  0
 33 39  1  0  0  0
 34 35  2  0  0  0
 35 36  1  0  0  0
 35 40  1  0  0  0
 36 41  1  0  0  0
M  END
> <s_m_entry_id>
30

> <s_m_entry_name>
lig_p38a_3fly.1

> <s_pdb_PDB_TITLE>
MX MODEL

> <i_pdb_PDB_Model>
1

> <r_pdb_PDB_CRYST1_a>
159.14

> <r_pdb_PDB_CRYST1_b>
135.78

> <r_pdb_PDB_CRYST1_c>
253.62

> <r_pdb_PDB_CRYST1_alpha>
90

> <r_pdb_PDB_CRYST1_beta>
90

> <r_pdb_PDB_CRYST1_gamma>
90

> <s_pdb_PDB_CRYST1_Space_Group>
P 1

> <i_pdb_PDB_CRYST1_z>
1

> <s_pdb_PDB_format_version>
3.0

> <s_m_Source_Path>
/users/home/dhahn3/projects/PLBenchmarks/PLBenchmarks/data/2019-12-09_p38/03_docked

> <s_m_Source_File>
lig_p38a_3fly.pdb

> <i_m_Source_File_Index>
1

$$$$
lig_p38a_3flz
                    3D
 Structure written by MMmdl.
 46 49  0  0  1  0            999 V2000
   35.2500   37.1300   20.2300 C   0  0  0  0  0  0
   34.3100   37.0400   22.5100 C   0  0  0  0  0  0
   34.8000   37.8100   21.4400 C   0  0  0  0  0  0
   34.8500   39.2100   21.6200 C   0  0  0  0  0  0
   34.0400   38.9800   23.7400 C   0  0  0  0  0  0
   35.1700   35.7800   20.1300 C   0  0  0  0  0  0
   33.6300   34.8400   23.4300 C   0  0  0  0  0  0
   34.3300   33.7800   21.0200 O   0  0  0  0  0  0
   34.5500   34.9800   21.1800 C   0  0  0  0  0  0
   34.4800   39.7900   22.7800 N   0  0  0  0  0  0
   34.2100   35.6200   22.3400 N   0  0  0  0  0  0
   33.9300   37.6500   23.6600 N   0  0  0  0  0  0
   33.6700   39.5700   24.9300 N   0  0  0  0  0  0
   35.6900   37.7200   19.4400 H   0  0  0  0  0  0
   35.2200   39.8600   20.8400 H   0  0  0  0  0  0
   34.3400   34.0700   23.7500 H   0  0  0  0  0  0
   33.4000   35.5000   24.2700 H   0  0  0  0  0  0
   32.7100   34.3600   23.0800 H   0  0  0  0  0  0
   33.7300   40.5700   24.9800 H   0  0  0  0  0  0
   31.2800   38.2600   27.5900 C   0  0  0  0  0  0
   31.7600   39.0900   26.3800 C   0  0  0  0  0  0
   33.2200   38.7400   26.0300 C   0  0  0  0  0  0
   34.1400   38.9500   27.2500 C   0  0  0  0  0  0
   33.6600   38.1200   28.4500 C   0  0  0  0  0  0
   32.2000   38.4700   28.8000 O   0  0  0  0  0  0
   31.2600   37.1800   27.3100 H   0  0  0  0  0  0
   30.2300   38.5500   27.8500 H   0  0  0  0  0  0
   31.6900   40.1800   26.6200 H   0  0  0  0  0  0
   31.1100   38.9000   25.5000 H   0  0  0  0  0  0
   33.2800   37.6800   25.7000 H   0  0  0  0  0  0
   35.1900   38.6600   26.9900 H   0  0  0  0  0  0
   34.1600   40.0300   27.5200 H   0  0  0  0  0  0
   33.7300   37.0400   28.2100 H   0  0  0  0  0  0
   34.3100   38.3100   29.3300 H   0  0  0  0  0  0
   35.6600   35.1500   19.0200 O   0  0  0  0  0  0
   37.2400   37.9900   16.3900 C   0  0  0  0  0  0
   35.8900   37.6200   16.3000 C   0  0  0  0  0  0
   35.3500   36.6600   17.1800 C   0  0  0  0  0  0
   36.1700   36.0800   18.1600 C   0  0  0  0  0  0
   37.5200   36.4500   18.2600 C   0  0  0  0  0  0
   38.0600   37.4100   17.3800 C   0  0  0  0  0  0
   37.6500   38.7400   15.7000 H   0  0  0  0  0  0
   35.2400   38.0700   15.5200 H   0  0  0  0  0  0
   34.2900   36.3700   17.1000 H   0  0  0  0  0  0
   38.1700   35.9900   19.0300 H   0  0  0  0  0  0
   39.1200   37.7000   17.4500 H   0  0  0  0  0  0
  1  3  1  0  0  0
  1  6  2  0  0  0
  1 14  1  0  0  0
  2  3  1  0  0  0
  2 11  1  0  0  0
  2 12  2  0  0  0
  3  4  2  0  0  0
  4 10  1  0  0  0
  4 15  1  0  0  0
  5 10  2  0  0  0
  5 12  1  0  0  0
  5 13  1  0  0  0
  6  9  1  0  0  0
  6 35  1  0  0  0
  7 11  1  0  0  0
  7 16  1  0  0  0
  7 17  1  0  0  0
  7 18  1  0  0  0
  8  9  2  0  0  0
  9 11  1  0  0  0
 13 19  1  0  0  0
 13 22  1  0  0  0
 20 21  1  0  0  0
 20 25  1  0  0  0
 20 26  1  0  0  0
 20 27  1  0  0  0
 21 22  1  0  0  0
 21 28  1  0  0  0
 21 29  1  0  0  0
 22 23  1  0  0  0
 22 30  1  0  0  0
 23 24  1  0  0  0
 23 31  1  0  0  0
 23 32  1  0  0  0
 24 25  1  0  0  0
 24 33  1  0  0  0
 24 34  1  0  0  0
 35 39  1  0  0  0
 36 37  1  0  0  0
 36 41  2  0  0  0
 36 42  1  0  0  0
 37 38  2  0  0  0
 37 43  1  0  0  0
 38 39  1  0  0  0
 38 44  1  0  0  0
 39 40  2  0  0  0
 40 41  1  0  0  0
 40 45  1  0  0  0
 41 46  1  0  0  0
M  END
> <s_m_entry_id>
31

> <s_m_entry_name>
lig_p38a_3flz.1

> <s_pdb_PDB_TITLE>
MX MODEL

> <i_pdb_PDB_Model>
1

> <r_pdb_PDB_CRYST1_a>
177.7

> <r_pdb_PDB_CRYST1_b>
135.84

> <r_pdb_PDB_CRYST1_c>
276.18

> <r_pdb_PDB_CRYST1_alpha>
90

> <r_pdb_PDB_CRYST1_beta>
90

> <r_pdb_PDB_CRYST1_gamma>
90

> <s_pdb_PDB_CRYST1_Space_Group>
P 1

> <i_pdb_PDB_CRYST1_z>
1

> <s_pdb_PDB_format_version>
3.0

> <s_m_Source_Path>
/users/home/dhahn3/projects/PLBenchmarks/PLBenchmarks/data/2019-12-09_p38/03_docked

> <s_m_Source_File>
lig_p38a_3flz.pdb

> <i_m_Source_File_Index>
1

$$$$
lig_p38a_3fmh
                    3D
 Structure written by MMmdl.
 46 49  0  0  1  0            999 V2000
   35.1700   35.7800   20.1300 C   0  0  0  0  0  0
   34.5500   34.9800   21.1800 C   0  0  0  0  0  0
   34.3300   33.7800   21.0200 O   0  0  0  0  0  0
   34.2100   35.6200   22.3400 N   0  0  0  0  0  0
   33.7000   34.8300   23.4800 C   0  0  0  0  0  0
   34.3100   37.0400   22.5100 C   0  0  0  0  0  0
   33.9300   37.6500   23.6600 N   0  0  0  0  0  0
   35.2500   37.1300   20.2300 C   0  0  0  0  0  0
   34.8000   37.8100   21.4400 C   0  0  0  0  0  0
   34.8500   39.2100   21.6200 C   0  0  0  0  0  0
   34.4800   39.7900   22.7800 N   0  0  0  0  0  0
   34.0400   38.9800   23.7400 C   0  0  0  0  0  0
   33.6700   39.5700   24.9300 N   0  0  0  0  0  0
   33.0500   38.9400   26.0900 C   0  0  2  0  0  0
   31.6200   39.4400   26.2500 C   0  0  0  0  0  0
   33.9200   39.1100   27.3600 C   0  0  0  0  0  0
   34.2000   40.5000   27.7100 N   0  0  0  0  0  0
   35.3700   41.1000   27.4000 N   0  0  0  0  0  0
   35.1500   42.2900   27.9300 C   0  0  0  0  0  0
   33.9300   42.4200   28.5200 N   0  0  0  0  0  0
   33.3400   41.2800   28.3900 N   0  0  0  0  0  0
   33.3900   35.4800   24.3000 H   0  0  0  0  0  0
   32.8300   34.2500   23.1700 H   0  0  0  0  0  0
   34.4300   34.1400   23.9100 H   0  0  0  0  0  0
   35.6900   37.7400   19.4600 H   0  0  0  0  0  0
   35.2200   39.8600   20.8300 H   0  0  0  0  0  0
   33.8400   40.5600   25.0000 H   0  0  0  0  0  0
   32.9800   37.8700   25.9000 H   0  0  0  0  0  0
   31.1300   38.9700   27.1100 H   0  0  0  0  0  0
   31.5700   40.5200   26.4000 H   0  0  0  0  0  0
   31.0300   39.2000   25.3700 H   0  0  0  0  0  0
   33.4300   38.6400   28.2100 H   0  0  0  0  0  0
   34.8700   38.5900   27.2300 H   0  0  0  0  0  0
   35.8800   43.0900   27.8800 H   0  0  0  0  0  0
   35.6600   35.1800   19.0100 O   0  0  0  0  0  0
   37.2600   38.0600   16.4500 C   0  0  0  0  0  0
   38.0800   37.4300   17.4000 C   0  0  0  0  0  0
   37.5400   36.4600   18.2600 C   0  0  0  0  0  0
   36.1900   36.1200   18.1700 C   0  0  0  0  0  0
   35.3600   36.7500   17.2200 C   0  0  0  0  0  0
   35.9000   37.7200   16.3600 C   0  0  0  0  0  0
   37.7700   38.9800   15.6300 F   0  0  0  0  0  0
   39.1500   37.7000   17.4700 H   0  0  0  0  0  0
   38.3200   35.8600   19.1700 F   0  0  0  0  0  0
   34.3000   36.4800   17.1500 H   0  0  0  0  0  0
   35.2600   38.2100   15.6200 H   0  0  0  0  0  0
  1  2  1  0  0  0
  1  8  2  0  0  0
  1 35  1  0  0  0
  2  3  2  0  0  0
  2  4  1  0  0  0
  4  5  1  0  0  0
  4  6  1  0  0  0
  5 22  1  0  0  0
  5 23  1  0  0  0
  5 24  1  0  0  0
  6  7  1  0  0  0
  6  9  2  0  0  0
  7 12  2  0  0  0
  8  9  1  0  0  0
  8 25  1  0  0  0
  9 10  1  0  0  0
 10 11  2  0  0  0
 10 26  1  0  0  0
 11 12  1  0  0  0
 12 13  1  0  0  0
 13 14  1  0  0  0
 13 27  1  0  0  0
 14 15  1  0  0  0
 14 16  1  0  0  0
 14 28  1  0  0  0
 15 29  1  0  0  0
 15 30  1  0  0  0
 15 31  1  0  0  0
 16 17  1  0  0  0
 16 32  1  0  0  0
 16 33  1  0  0  0
 17 18  1  0  0  0
 17 21  1  0  0  0
 18 19  2  0  0  0
 19 20  1  0  0  0
 19 34  1  0  0  0
 20 21  2  0  0  0
 35 39  1  0  0  0
 36 37  1  0  0  0
 36 41  2  0  0  0
 36 42  1  0  0  0
 37 38  2  0  0  0
 37 43  1  0  0  0
 38 39  1  0  0  0
 38 44  1  0  0  0
 39 40  2  0  0  0
 40 41  1  0  0  0
 40 45  1  0  0  0
 41 46  1  0  0  0
M  END
> <s_m_entry_id>
32

> <s_m_entry_name>
lig_p38a_3fmh.1

> <s_pdb_PDB_TITLE>
MX MODEL

> <i_pdb_PDB_Model>
1

> <r_pdb_PDB_CRYST1_a>
162.38

> <r_pdb_PDB_CRYST1_b>
186.22

> <r_pdb_PDB_CRYST1_c>
258.14

> <r_pdb_PDB_CRYST1_alpha>
90

> <r_pdb_PDB_CRYST1_beta>
90

> <r_pdb_PDB_CRYST1_gamma>
90

> <s_pdb_PDB_CRYST1_Space_Group>
P 1

> <i_pdb_PDB_CRYST1_z>
1

> <s_pdb_PDB_format_version>
3.0

> <s_m_Source_Path>
/users/home/dhahn3/projects/PLBenchmarks/PLBenchmarks/data/2019-12-09_p38/03_docked

> <s_m_Source_File>
lig_p38a_3fmh.pdb

> <i_m_Source_File_Index>
1

$$$$
lig_p38a_3fmk
                    3D
 Structure written by MMmdl.
 46 49  0  0  1  0            999 V2000
   33.6700   34.8100   23.4500 C   0  0  0  0  0  0
   34.8500   39.2100   21.6200 C   0  0  0  0  0  0
   33.0500   38.9400   26.0900 C   0  0  1  0  0  0
   31.5900   39.4100   26.2500 C   0  0  0  0  0  0
   34.0400   38.9800   23.7400 C   0  0  0  0  0  0
   34.5500   34.9800   21.1800 C   0  0  0  0  0  0
   35.1700   35.7800   20.1300 C   0  0  0  0  0  0
   35.2500   37.1300   20.2300 C   0  0  0  0  0  0
   34.8000   37.8100   21.4400 C   0  0  0  0  0  0
   34.3100   37.0400   22.5100 C   0  0  0  0  0  0
   33.6700   39.5700   24.9300 N   0  0  0  0  0  0
   34.3300   33.7800   21.0200 O   0  0  0  0  0  0
   34.2100   35.6200   22.3400 N   0  0  0  0  0  0
   33.9300   37.6500   23.6600 N   0  0  0  0  0  0
   34.4800   39.7900   22.7800 N   0  0  0  0  0  0
   33.8700   39.2400   27.3500 C   0  0  0  0  0  0
   30.7400   38.9500   25.1600 N   0  0  0  0  0  0
   30.2600   39.7700   24.2100 N   0  0  0  0  0  0
   29.6000   38.8900   23.4700 C   0  0  0  0  0  0
   29.6600   37.6200   23.9400 N   0  0  0  0  0  0
   30.3700   37.6600   25.0200 N   0  0  0  0  0  0
   33.5000   35.3800   24.3600 H   0  0  0  0  0  0
   32.7200   34.3600   23.1500 H   0  0  0  0  0  0
   34.3500   34.0000   23.7300 H   0  0  0  0  0  0
   35.2200   39.8600   20.8400 H   0  0  0  0  0  0
   33.0600   37.8600   25.9500 H   0  0  0  0  0  0
   31.1800   39.0200   27.1800 H   0  0  0  0  0  0
   31.5500   40.4900   26.3000 H   0  0  0  0  0  0
   35.7000   37.7300   19.4600 H   0  0  0  0  0  0
   33.7600   40.5700   24.9600 H   0  0  0  0  0  0
   34.9100   38.9300   27.2300 H   0  0  0  0  0  0
   33.8600   40.3000   27.5900 H   0  0  0  0  0  0
   33.4700   38.7000   28.2100 H   0  0  0  0  0  0
   29.0400   39.1700   22.5900 H   0  0  0  0  0  0
   35.6600   35.1800   19.0100 O   0  0  0  0  0  0
   37.2600   38.0600   16.4500 C   0  0  0  0  0  0
   38.0500   37.5200   17.4800 C   0  0  0  0  0  0
   37.5100   36.5500   18.3500 C   0  0  0  0  0  0
   36.1900   36.1200   18.1700 C   0  0  0  0  0  0
   35.4000   36.6500   17.1400 C   0  0  0  0  0  0
   35.9400   37.6200   16.2800 C   0  0  0  0  0  0
   37.7700   38.9800   15.6300 F   0  0  0  0  0  0
   39.0900   37.8600   17.6200 H   0  0  0  0  0  0
   38.2600   36.0400   19.3200 F   0  0  0  0  0  0
   34.3600   36.3100   17.0100 H   0  0  0  0  0  0
   35.3200   38.0500   15.4700 H   0  0  0  0  0  0
  1 13  1  0  0  0
  1 22  1  0  0  0
  1 23  1  0  0  0
  1 24  1  0  0  0
  2  9  1  0  0  0
  2 15  2  0  0  0
  2 25  1  0  0  0
  3  4  1  0  0  0
  3 11  1  0  0  0
  3 16  1  0  0  0
  3 26  1  0  0  0
  4 17  1  0  0  0
  4 27  1  0  0  0
  4 28  1  0  0  0
  5 11  1  0  0  0
  5 14  2  0  0  0
  5 15  1  0  0  0
  6  7  1  0  0  0
  6 12  2  0  0  0
  6 13  1  0  0  0
  7  8  2  0  0  0
  7 35  1  0  0  0
  8  9  1  0  0  0
  8 29  1  0  0  0
  9 10  2  0  0  0
 10 13  1  0  0  0
 10 14  1  0  0  0
 11 30  1  0  0  0
 16 31  1  0  0  0
 16 32  1  0  0  0
 16 33  1  0  0  0
 17 18  1  0  0  0
 17 21  1  0  0  0
 18 19  2  0  0  0
 19 20  1  0  0  0
 19 34  1  0  0  0
 20 21  2  0  0  0
 35 39  1  0  0  0
 36 37  1  0  0  0
 36 41  2  0  0  0
 36 42  1  0  0  0
 37 38  2  0  0  0
 37 43  1  0  0  0
 38 39  1  0  0  0
 38 44  1  0  0  0
 39 40  2  0  0  0
 40 41  1  0  0  0
 40 45  1  0  0  0
 41 46  1  0  0  0
M  END
> <s_m_entry_id>
33

> <s_m_entry_name>
lig_p38a_3fmk.1

> <s_pdb_PDB_TITLE>
MX MODEL

> <i_pdb_PDB_Model>
1

> <r_pdb_PDB_CRYST1_a>
200.9

> <r_pdb_PDB_CRYST1_b>
135.94

> <r_pdb_PDB_CRYST1_c>
254.82

> <r_pdb_PDB_CRYST1_alpha>
90

> <r_pdb_PDB_CRYST1_beta>
90

> <r_pdb_PDB_CRYST1_gamma>
90

> <s_pdb_PDB_CRYST1_Space_Group>
P 1

> <i_pdb_PDB_CRYST1_z>
1

> <s_pdb_PDB_format_version>
3.0

> <s_m_Source_Path>
/users/home/dhahn3/projects/PLBenchmarks/PLBenchmarks/data/2019-12-09_p38/03_docked

> <s_m_Source_File>
lig_p38a_3fmk.pdb

> <i_m_Source_File_Index>
1

$$$$
